
---------- Begin Simulation Statistics ----------
simSeconds                                   0.001000                       # Number of seconds simulated (Second)
simTicks                                   1000000000                       # Number of ticks simulated (Tick)
finalTick                                  1000000000                       # Number of ticks from beginning of simulation (restored from checkpoints and never reset) (Tick)
simFreq                                  1000000000000                       # The number of ticks per simulated second ((Tick/Second))
hostSeconds                                      0.56                       # Real time elapsed on the host (Second)
hostTickRate                               1798994722                       # The number of ticks simulated per host second (ticks/s) ((Tick/Second))
hostMemory                                   17001004                       # Number of bytes of host memory used (Byte)
board.cache_hierarchy.membus.transDist::ReadReq       132386                       # Transaction distribution (Count)
board.cache_hierarchy.membus.transDist::ReadResp       132376                       # Transaction distribution (Count)
board.cache_hierarchy.membus.transDist::WriteReq       134915                       # Transaction distribution (Count)
board.cache_hierarchy.membus.transDist::WriteResp       134914                       # Transaction distribution (Count)
board.cache_hierarchy.membus.pktCount_board.processor.cores.generator.port::board.memory.mem_ctrl.port       534591                       # Packet count per connected requestor and responder (Count)
board.cache_hierarchy.membus.pktCount_board.processor.cores.generator.port::total       534591                       # Packet count per connected requestor and responder (Count)
board.cache_hierarchy.membus.pktCount::total       534591                       # Packet count per connected requestor and responder (Count)
board.cache_hierarchy.membus.pktSize_board.processor.cores.generator.port::board.memory.mem_ctrl.port     17106624                       # Cumulative packet size per connected requestor and responder (Byte)
board.cache_hierarchy.membus.pktSize_board.processor.cores.generator.port::total     17106624                       # Cumulative packet size per connected requestor and responder (Byte)
board.cache_hierarchy.membus.pktSize::total     17106624                       # Cumulative packet size per connected requestor and responder (Byte)
board.cache_hierarchy.membus.snoops                 0                       # Total snoops (Count)
board.cache_hierarchy.membus.snoopTraffic            0                       # Total snoop traffic (Byte)
board.cache_hierarchy.membus.snoopFanout::samples       267467                       # Request fanout histogram (Count)
board.cache_hierarchy.membus.snoopFanout::mean            0                       # Request fanout histogram (Count)
board.cache_hierarchy.membus.snoopFanout::stdev            0                       # Request fanout histogram (Count)
board.cache_hierarchy.membus.snoopFanout::underflows            0      0.00%      0.00% # Request fanout histogram (Count)
board.cache_hierarchy.membus.snoopFanout::0       267467    100.00%    100.00% # Request fanout histogram (Count)
board.cache_hierarchy.membus.snoopFanout::overflows            0      0.00%    100.00% # Request fanout histogram (Count)
board.cache_hierarchy.membus.snoopFanout::min_value            0                       # Request fanout histogram (Count)
board.cache_hierarchy.membus.snoopFanout::max_value            0                       # Request fanout histogram (Count)
board.cache_hierarchy.membus.snoopFanout::total       267467                       # Request fanout histogram (Count)
board.cache_hierarchy.membus.badaddr_responder.power_state.pwrStateResidencyTicks::UNDEFINED   1000000000                       # Cumulative time (in ticks) in various power states (Tick)
board.cache_hierarchy.membus.power_state.pwrStateResidencyTicks::UNDEFINED   1000000000                       # Cumulative time (in ticks) in various power states (Tick)
board.cache_hierarchy.membus.reqLayer0.occupancy    178374158                       # Layer occupancy (ticks) (Tick)
board.cache_hierarchy.membus.reqLayer0.utilization          0.2                       # Layer utilization (Ratio)
board.cache_hierarchy.membus.respLayer1.occupancy    196430799                       # Layer occupancy (ticks) (Tick)
board.cache_hierarchy.membus.respLayer1.utilization          0.2                       # Layer utilization (Ratio)
board.cache_hierarchy.membus.snoop_filter.totRequests            0                       # Total number of requests made to the snoop filter. (Count)
board.cache_hierarchy.membus.snoop_filter.hitSingleRequests            0                       # Number of requests hitting in the snoop filter with a single holder of the requested data. (Count)
board.cache_hierarchy.membus.snoop_filter.hitMultiRequests            0                       # Number of requests hitting in the snoop filter with multiple (>1) holders of the requested data. (Count)
board.cache_hierarchy.membus.snoop_filter.totSnoops            0                       # Total number of snoops made to the snoop filter. (Count)
board.cache_hierarchy.membus.snoop_filter.hitSingleSnoops            0                       # Number of snoops hitting in the snoop filter with a single holder of the requested data. (Count)
board.cache_hierarchy.membus.snoop_filter.hitMultiSnoops            0                       # Number of snoops hitting in the snoop filter with multiple (>1) holders of the requested data. (Count)
board.clk_domain.clock                            333                       # Clock period in ticks (Tick)
board.clk_domain.voltage_domain.voltage             1                       # Voltage in Volts (Volt)
board.memory.mem_ctrl.avgPriority_processor.cores.generator::samples    219094.00                       # Average QoS priority value for accepted requests (Count)
board.memory.mem_ctrl.priorityMinLatency 0.000000017492                       # per QoS priority minimum request to response latency (Second)
board.memory.mem_ctrl.priorityMaxLatency 0.000003749060                       # per QoS priority maximum request to response latency (Second)
board.memory.mem_ctrl.numReadWriteTurnArounds         6909                       # Number of turnarounds from READ to WRITE (Count)
board.memory.mem_ctrl.numWriteReadTurnArounds         6909                       # Number of turnarounds from WRITE to READ (Count)
board.memory.mem_ctrl.numStayReadState         114701                       # Number of times bus staying in READ state (Count)
board.memory.mem_ctrl.numStayWriteState        108077                       # Number of times bus staying in WRITE state (Count)
board.memory.mem_ctrl.readReqs                 132386                       # Number of read requests accepted (Count)
board.memory.mem_ctrl.writeReqs                134915                       # Number of write requests accepted (Count)
board.memory.mem_ctrl.readBursts               132386                       # Number of controller read bursts, including those serviced by the write queue (Count)
board.memory.mem_ctrl.writeBursts              134915                       # Number of controller write bursts, including those merged in the write queue (Count)
board.memory.mem_ctrl.servicedByWrQ             23936                       # Number of controller read bursts serviced by the write queue (Count)
board.memory.mem_ctrl.mergedWrBursts            24271                       # Number of controller write bursts merged with an existing one (Count)
board.memory.mem_ctrl.neitherReadNorWriteReqs            0                       # Number of requests that are neither read nor write (Count)
board.memory.mem_ctrl.avgRdQLen                 14.69                       # Average read queue length when enqueuing ((Count/Tick))
board.memory.mem_ctrl.avgWrQLen                 93.63                       # Average write queue length when enqueuing ((Count/Tick))
board.memory.mem_ctrl.numRdRetry                    5                       # Number of times read queue was full causing retry (Count)
board.memory.mem_ctrl.numWrRetry                  161                       # Number of times write queue was full causing retry (Count)
board.memory.mem_ctrl.readPktSize::0                0                       # Read request sizes (log2) (Count)
board.memory.mem_ctrl.readPktSize::1                0                       # Read request sizes (log2) (Count)
board.memory.mem_ctrl.readPktSize::2                0                       # Read request sizes (log2) (Count)
board.memory.mem_ctrl.readPktSize::3                0                       # Read request sizes (log2) (Count)
board.memory.mem_ctrl.readPktSize::4                0                       # Read request sizes (log2) (Count)
board.memory.mem_ctrl.readPktSize::5                0                       # Read request sizes (log2) (Count)
board.memory.mem_ctrl.readPktSize::6           132386                       # Read request sizes (log2) (Count)
board.memory.mem_ctrl.writePktSize::0               0                       # Write request sizes (log2) (Count)
board.memory.mem_ctrl.writePktSize::1               0                       # Write request sizes (log2) (Count)
board.memory.mem_ctrl.writePktSize::2               0                       # Write request sizes (log2) (Count)
board.memory.mem_ctrl.writePktSize::3               0                       # Write request sizes (log2) (Count)
board.memory.mem_ctrl.writePktSize::4               0                       # Write request sizes (log2) (Count)
board.memory.mem_ctrl.writePktSize::5               0                       # Write request sizes (log2) (Count)
board.memory.mem_ctrl.writePktSize::6          134915                       # Write request sizes (log2) (Count)
board.memory.mem_ctrl.rdQLenPdf::0                 14                       # What read queue length does an incoming req see (Count)
board.memory.mem_ctrl.rdQLenPdf::1                172                       # What read queue length does an incoming req see (Count)
board.memory.mem_ctrl.rdQLenPdf::2                646                       # What read queue length does an incoming req see (Count)
board.memory.mem_ctrl.rdQLenPdf::3               1857                       # What read queue length does an incoming req see (Count)
board.memory.mem_ctrl.rdQLenPdf::4               3797                       # What read queue length does an incoming req see (Count)
board.memory.mem_ctrl.rdQLenPdf::5               6252                       # What read queue length does an incoming req see (Count)
board.memory.mem_ctrl.rdQLenPdf::6               8636                       # What read queue length does an incoming req see (Count)
board.memory.mem_ctrl.rdQLenPdf::7               9899                       # What read queue length does an incoming req see (Count)
board.memory.mem_ctrl.rdQLenPdf::8              10331                       # What read queue length does an incoming req see (Count)
board.memory.mem_ctrl.rdQLenPdf::9              10116                       # What read queue length does an incoming req see (Count)
board.memory.mem_ctrl.rdQLenPdf::10              9211                       # What read queue length does an incoming req see (Count)
board.memory.mem_ctrl.rdQLenPdf::11              7851                       # What read queue length does an incoming req see (Count)
board.memory.mem_ctrl.rdQLenPdf::12              6546                       # What read queue length does an incoming req see (Count)
board.memory.mem_ctrl.rdQLenPdf::13              5193                       # What read queue length does an incoming req see (Count)
board.memory.mem_ctrl.rdQLenPdf::14              3754                       # What read queue length does an incoming req see (Count)
board.memory.mem_ctrl.rdQLenPdf::15              2597                       # What read queue length does an incoming req see (Count)
board.memory.mem_ctrl.rdQLenPdf::16              1704                       # What read queue length does an incoming req see (Count)
board.memory.mem_ctrl.rdQLenPdf::17              1210                       # What read queue length does an incoming req see (Count)
board.memory.mem_ctrl.rdQLenPdf::18               906                       # What read queue length does an incoming req see (Count)
board.memory.mem_ctrl.rdQLenPdf::19               681                       # What read queue length does an incoming req see (Count)
board.memory.mem_ctrl.rdQLenPdf::20               621                       # What read queue length does an incoming req see (Count)
board.memory.mem_ctrl.rdQLenPdf::21               595                       # What read queue length does an incoming req see (Count)
board.memory.mem_ctrl.rdQLenPdf::22               607                       # What read queue length does an incoming req see (Count)
board.memory.mem_ctrl.rdQLenPdf::23               514                       # What read queue length does an incoming req see (Count)
board.memory.mem_ctrl.rdQLenPdf::24               541                       # What read queue length does an incoming req see (Count)
board.memory.mem_ctrl.rdQLenPdf::25               531                       # What read queue length does an incoming req see (Count)
board.memory.mem_ctrl.rdQLenPdf::26               554                       # What read queue length does an incoming req see (Count)
board.memory.mem_ctrl.rdQLenPdf::27               592                       # What read queue length does an incoming req see (Count)
board.memory.mem_ctrl.rdQLenPdf::28               546                       # What read queue length does an incoming req see (Count)
board.memory.mem_ctrl.rdQLenPdf::29               565                       # What read queue length does an incoming req see (Count)
board.memory.mem_ctrl.rdQLenPdf::30               541                       # What read queue length does an incoming req see (Count)
board.memory.mem_ctrl.rdQLenPdf::31               522                       # What read queue length does an incoming req see (Count)
board.memory.mem_ctrl.rdQLenPdf::32               542                       # What read queue length does an incoming req see (Count)
board.memory.mem_ctrl.rdQLenPdf::33               538                       # What read queue length does an incoming req see (Count)
board.memory.mem_ctrl.rdQLenPdf::34               561                       # What read queue length does an incoming req see (Count)
board.memory.mem_ctrl.rdQLenPdf::35               546                       # What read queue length does an incoming req see (Count)
board.memory.mem_ctrl.rdQLenPdf::36               557                       # What read queue length does an incoming req see (Count)
board.memory.mem_ctrl.rdQLenPdf::37               514                       # What read queue length does an incoming req see (Count)
board.memory.mem_ctrl.rdQLenPdf::38               511                       # What read queue length does an incoming req see (Count)
board.memory.mem_ctrl.rdQLenPdf::39               537                       # What read queue length does an incoming req see (Count)
board.memory.mem_ctrl.rdQLenPdf::40               497                       # What read queue length does an incoming req see (Count)
board.memory.mem_ctrl.rdQLenPdf::41               492                       # What read queue length does an incoming req see (Count)
board.memory.mem_ctrl.rdQLenPdf::42               478                       # What read queue length does an incoming req see (Count)
board.memory.mem_ctrl.rdQLenPdf::43               437                       # What read queue length does an incoming req see (Count)
board.memory.mem_ctrl.rdQLenPdf::44               397                       # What read queue length does an incoming req see (Count)
board.memory.mem_ctrl.rdQLenPdf::45               394                       # What read queue length does an incoming req see (Count)
board.memory.mem_ctrl.rdQLenPdf::46               364                       # What read queue length does an incoming req see (Count)
board.memory.mem_ctrl.rdQLenPdf::47               367                       # What read queue length does an incoming req see (Count)
board.memory.mem_ctrl.rdQLenPdf::48               320                       # What read queue length does an incoming req see (Count)
board.memory.mem_ctrl.rdQLenPdf::49               328                       # What read queue length does an incoming req see (Count)
board.memory.mem_ctrl.rdQLenPdf::50               320                       # What read queue length does an incoming req see (Count)
board.memory.mem_ctrl.rdQLenPdf::51               293                       # What read queue length does an incoming req see (Count)
board.memory.mem_ctrl.rdQLenPdf::52               263                       # What read queue length does an incoming req see (Count)
board.memory.mem_ctrl.rdQLenPdf::53               245                       # What read queue length does an incoming req see (Count)
board.memory.mem_ctrl.rdQLenPdf::54               201                       # What read queue length does an incoming req see (Count)
board.memory.mem_ctrl.rdQLenPdf::55               147                       # What read queue length does an incoming req see (Count)
board.memory.mem_ctrl.rdQLenPdf::56               133                       # What read queue length does an incoming req see (Count)
board.memory.mem_ctrl.rdQLenPdf::57               116                       # What read queue length does an incoming req see (Count)
board.memory.mem_ctrl.rdQLenPdf::58                87                       # What read queue length does an incoming req see (Count)
board.memory.mem_ctrl.rdQLenPdf::59                64                       # What read queue length does an incoming req see (Count)
board.memory.mem_ctrl.rdQLenPdf::60                33                       # What read queue length does an incoming req see (Count)
board.memory.mem_ctrl.rdQLenPdf::61                25                       # What read queue length does an incoming req see (Count)
board.memory.mem_ctrl.rdQLenPdf::62                26                       # What read queue length does an incoming req see (Count)
board.memory.mem_ctrl.rdQLenPdf::63                15                       # What read queue length does an incoming req see (Count)
board.memory.mem_ctrl.wrQLenPdf::0                  1                       # What write queue length does an incoming req see (Count)
board.memory.mem_ctrl.wrQLenPdf::1                  1                       # What write queue length does an incoming req see (Count)
board.memory.mem_ctrl.wrQLenPdf::2                  1                       # What write queue length does an incoming req see (Count)
board.memory.mem_ctrl.wrQLenPdf::3                  1                       # What write queue length does an incoming req see (Count)
board.memory.mem_ctrl.wrQLenPdf::4                  1                       # What write queue length does an incoming req see (Count)
board.memory.mem_ctrl.wrQLenPdf::5                  1                       # What write queue length does an incoming req see (Count)
board.memory.mem_ctrl.wrQLenPdf::6                  1                       # What write queue length does an incoming req see (Count)
board.memory.mem_ctrl.wrQLenPdf::7                  1                       # What write queue length does an incoming req see (Count)
board.memory.mem_ctrl.wrQLenPdf::8                  1                       # What write queue length does an incoming req see (Count)
board.memory.mem_ctrl.wrQLenPdf::9                  1                       # What write queue length does an incoming req see (Count)
board.memory.mem_ctrl.wrQLenPdf::10                 1                       # What write queue length does an incoming req see (Count)
board.memory.mem_ctrl.wrQLenPdf::11                 1                       # What write queue length does an incoming req see (Count)
board.memory.mem_ctrl.wrQLenPdf::12                 1                       # What write queue length does an incoming req see (Count)
board.memory.mem_ctrl.wrQLenPdf::13                 1                       # What write queue length does an incoming req see (Count)
board.memory.mem_ctrl.wrQLenPdf::14                 1                       # What write queue length does an incoming req see (Count)
board.memory.mem_ctrl.wrQLenPdf::15                 1                       # What write queue length does an incoming req see (Count)
board.memory.mem_ctrl.wrQLenPdf::16                 1                       # What write queue length does an incoming req see (Count)
board.memory.mem_ctrl.wrQLenPdf::17                 1                       # What write queue length does an incoming req see (Count)
board.memory.mem_ctrl.wrQLenPdf::18                 1                       # What write queue length does an incoming req see (Count)
board.memory.mem_ctrl.wrQLenPdf::19                 1                       # What write queue length does an incoming req see (Count)
board.memory.mem_ctrl.wrQLenPdf::20                 1                       # What write queue length does an incoming req see (Count)
board.memory.mem_ctrl.wrQLenPdf::21                 1                       # What write queue length does an incoming req see (Count)
board.memory.mem_ctrl.wrQLenPdf::22                 1                       # What write queue length does an incoming req see (Count)
board.memory.mem_ctrl.wrQLenPdf::23                 1                       # What write queue length does an incoming req see (Count)
board.memory.mem_ctrl.wrQLenPdf::24                 1                       # What write queue length does an incoming req see (Count)
board.memory.mem_ctrl.wrQLenPdf::25                 1                       # What write queue length does an incoming req see (Count)
board.memory.mem_ctrl.wrQLenPdf::26                 1                       # What write queue length does an incoming req see (Count)
board.memory.mem_ctrl.wrQLenPdf::27                 1                       # What write queue length does an incoming req see (Count)
board.memory.mem_ctrl.wrQLenPdf::28                 1                       # What write queue length does an incoming req see (Count)
board.memory.mem_ctrl.wrQLenPdf::29                 1                       # What write queue length does an incoming req see (Count)
board.memory.mem_ctrl.wrQLenPdf::30                 1                       # What write queue length does an incoming req see (Count)
board.memory.mem_ctrl.wrQLenPdf::31                 1                       # What write queue length does an incoming req see (Count)
board.memory.mem_ctrl.wrQLenPdf::32                 1                       # What write queue length does an incoming req see (Count)
board.memory.mem_ctrl.wrQLenPdf::33                 1                       # What write queue length does an incoming req see (Count)
board.memory.mem_ctrl.wrQLenPdf::34                 1                       # What write queue length does an incoming req see (Count)
board.memory.mem_ctrl.wrQLenPdf::35                 1                       # What write queue length does an incoming req see (Count)
board.memory.mem_ctrl.wrQLenPdf::36                 1                       # What write queue length does an incoming req see (Count)
board.memory.mem_ctrl.wrQLenPdf::37                 1                       # What write queue length does an incoming req see (Count)
board.memory.mem_ctrl.wrQLenPdf::38                 1                       # What write queue length does an incoming req see (Count)
board.memory.mem_ctrl.wrQLenPdf::39                 1                       # What write queue length does an incoming req see (Count)
board.memory.mem_ctrl.wrQLenPdf::40                 1                       # What write queue length does an incoming req see (Count)
board.memory.mem_ctrl.wrQLenPdf::41                 1                       # What write queue length does an incoming req see (Count)
board.memory.mem_ctrl.wrQLenPdf::42                 1                       # What write queue length does an incoming req see (Count)
board.memory.mem_ctrl.wrQLenPdf::43                 1                       # What write queue length does an incoming req see (Count)
board.memory.mem_ctrl.wrQLenPdf::44                 1                       # What write queue length does an incoming req see (Count)
board.memory.mem_ctrl.wrQLenPdf::45                 1                       # What write queue length does an incoming req see (Count)
board.memory.mem_ctrl.wrQLenPdf::46                 1                       # What write queue length does an incoming req see (Count)
board.memory.mem_ctrl.wrQLenPdf::47                 1                       # What write queue length does an incoming req see (Count)
board.memory.mem_ctrl.wrQLenPdf::48                 1                       # What write queue length does an incoming req see (Count)
board.memory.mem_ctrl.wrQLenPdf::49                 1                       # What write queue length does an incoming req see (Count)
board.memory.mem_ctrl.wrQLenPdf::50                 2                       # What write queue length does an incoming req see (Count)
board.memory.mem_ctrl.wrQLenPdf::51                 3                       # What write queue length does an incoming req see (Count)
board.memory.mem_ctrl.wrQLenPdf::52                 9                       # What write queue length does an incoming req see (Count)
board.memory.mem_ctrl.wrQLenPdf::53                13                       # What write queue length does an incoming req see (Count)
board.memory.mem_ctrl.wrQLenPdf::54                24                       # What write queue length does an incoming req see (Count)
board.memory.mem_ctrl.wrQLenPdf::55                34                       # What write queue length does an incoming req see (Count)
board.memory.mem_ctrl.wrQLenPdf::56                53                       # What write queue length does an incoming req see (Count)
board.memory.mem_ctrl.wrQLenPdf::57                63                       # What write queue length does an incoming req see (Count)
board.memory.mem_ctrl.wrQLenPdf::58                77                       # What write queue length does an incoming req see (Count)
board.memory.mem_ctrl.wrQLenPdf::59                86                       # What write queue length does an incoming req see (Count)
board.memory.mem_ctrl.wrQLenPdf::60               105                       # What write queue length does an incoming req see (Count)
board.memory.mem_ctrl.wrQLenPdf::61               121                       # What write queue length does an incoming req see (Count)
board.memory.mem_ctrl.wrQLenPdf::62               150                       # What write queue length does an incoming req see (Count)
board.memory.mem_ctrl.wrQLenPdf::63               191                       # What write queue length does an incoming req see (Count)
board.memory.mem_ctrl.wrQLenPdf::64               232                       # What write queue length does an incoming req see (Count)
board.memory.mem_ctrl.wrQLenPdf::65               259                       # What write queue length does an incoming req see (Count)
board.memory.mem_ctrl.wrQLenPdf::66               343                       # What write queue length does an incoming req see (Count)
board.memory.mem_ctrl.wrQLenPdf::67               411                       # What write queue length does an incoming req see (Count)
board.memory.mem_ctrl.wrQLenPdf::68               507                       # What write queue length does an incoming req see (Count)
board.memory.mem_ctrl.wrQLenPdf::69               612                       # What write queue length does an incoming req see (Count)
board.memory.mem_ctrl.wrQLenPdf::70               722                       # What write queue length does an incoming req see (Count)
board.memory.mem_ctrl.wrQLenPdf::71               913                       # What write queue length does an incoming req see (Count)
board.memory.mem_ctrl.wrQLenPdf::72              1123                       # What write queue length does an incoming req see (Count)
board.memory.mem_ctrl.wrQLenPdf::73              1269                       # What write queue length does an incoming req see (Count)
board.memory.mem_ctrl.wrQLenPdf::74              1451                       # What write queue length does an incoming req see (Count)
board.memory.mem_ctrl.wrQLenPdf::75              1775                       # What write queue length does an incoming req see (Count)
board.memory.mem_ctrl.wrQLenPdf::76              1996                       # What write queue length does an incoming req see (Count)
board.memory.mem_ctrl.wrQLenPdf::77              2266                       # What write queue length does an incoming req see (Count)
board.memory.mem_ctrl.wrQLenPdf::78              2484                       # What write queue length does an incoming req see (Count)
board.memory.mem_ctrl.wrQLenPdf::79              2590                       # What write queue length does an incoming req see (Count)
board.memory.mem_ctrl.wrQLenPdf::80              2727                       # What write queue length does an incoming req see (Count)
board.memory.mem_ctrl.wrQLenPdf::81              2854                       # What write queue length does an incoming req see (Count)
board.memory.mem_ctrl.wrQLenPdf::82              2944                       # What write queue length does an incoming req see (Count)
board.memory.mem_ctrl.wrQLenPdf::83              3143                       # What write queue length does an incoming req see (Count)
board.memory.mem_ctrl.wrQLenPdf::84              3148                       # What write queue length does an incoming req see (Count)
board.memory.mem_ctrl.wrQLenPdf::85              3148                       # What write queue length does an incoming req see (Count)
board.memory.mem_ctrl.wrQLenPdf::86              3275                       # What write queue length does an incoming req see (Count)
board.memory.mem_ctrl.wrQLenPdf::87              3133                       # What write queue length does an incoming req see (Count)
board.memory.mem_ctrl.wrQLenPdf::88              3131                       # What write queue length does an incoming req see (Count)
board.memory.mem_ctrl.wrQLenPdf::89              3026                       # What write queue length does an incoming req see (Count)
board.memory.mem_ctrl.wrQLenPdf::90              3134                       # What write queue length does an incoming req see (Count)
board.memory.mem_ctrl.wrQLenPdf::91              3064                       # What write queue length does an incoming req see (Count)
board.memory.mem_ctrl.wrQLenPdf::92              2938                       # What write queue length does an incoming req see (Count)
board.memory.mem_ctrl.wrQLenPdf::93              2805                       # What write queue length does an incoming req see (Count)
board.memory.mem_ctrl.wrQLenPdf::94              2745                       # What write queue length does an incoming req see (Count)
board.memory.mem_ctrl.wrQLenPdf::95              2640                       # What write queue length does an incoming req see (Count)
board.memory.mem_ctrl.wrQLenPdf::96              2549                       # What write queue length does an incoming req see (Count)
board.memory.mem_ctrl.wrQLenPdf::97              2484                       # What write queue length does an incoming req see (Count)
board.memory.mem_ctrl.wrQLenPdf::98              2516                       # What write queue length does an incoming req see (Count)
board.memory.mem_ctrl.wrQLenPdf::99              2546                       # What write queue length does an incoming req see (Count)
board.memory.mem_ctrl.wrQLenPdf::100             2499                       # What write queue length does an incoming req see (Count)
board.memory.mem_ctrl.wrQLenPdf::101             2576                       # What write queue length does an incoming req see (Count)
board.memory.mem_ctrl.wrQLenPdf::102             2466                       # What write queue length does an incoming req see (Count)
board.memory.mem_ctrl.wrQLenPdf::103             2378                       # What write queue length does an incoming req see (Count)
board.memory.mem_ctrl.wrQLenPdf::104             2240                       # What write queue length does an incoming req see (Count)
board.memory.mem_ctrl.wrQLenPdf::105             2163                       # What write queue length does an incoming req see (Count)
board.memory.mem_ctrl.wrQLenPdf::106             2074                       # What write queue length does an incoming req see (Count)
board.memory.mem_ctrl.wrQLenPdf::107             2045                       # What write queue length does an incoming req see (Count)
board.memory.mem_ctrl.wrQLenPdf::108             1926                       # What write queue length does an incoming req see (Count)
board.memory.mem_ctrl.wrQLenPdf::109             1475                       # What write queue length does an incoming req see (Count)
board.memory.mem_ctrl.wrQLenPdf::110             1171                       # What write queue length does an incoming req see (Count)
board.memory.mem_ctrl.wrQLenPdf::111              983                       # What write queue length does an incoming req see (Count)
board.memory.mem_ctrl.wrQLenPdf::112              899                       # What write queue length does an incoming req see (Count)
board.memory.mem_ctrl.wrQLenPdf::113              787                       # What write queue length does an incoming req see (Count)
board.memory.mem_ctrl.wrQLenPdf::114              742                       # What write queue length does an incoming req see (Count)
board.memory.mem_ctrl.wrQLenPdf::115              758                       # What write queue length does an incoming req see (Count)
board.memory.mem_ctrl.wrQLenPdf::116              688                       # What write queue length does an incoming req see (Count)
board.memory.mem_ctrl.wrQLenPdf::117              632                       # What write queue length does an incoming req see (Count)
board.memory.mem_ctrl.wrQLenPdf::118              626                       # What write queue length does an incoming req see (Count)
board.memory.mem_ctrl.wrQLenPdf::119              583                       # What write queue length does an incoming req see (Count)
board.memory.mem_ctrl.wrQLenPdf::120              578                       # What write queue length does an incoming req see (Count)
board.memory.mem_ctrl.wrQLenPdf::121              499                       # What write queue length does an incoming req see (Count)
board.memory.mem_ctrl.wrQLenPdf::122              434                       # What write queue length does an incoming req see (Count)
board.memory.mem_ctrl.wrQLenPdf::123              414                       # What write queue length does an incoming req see (Count)
board.memory.mem_ctrl.wrQLenPdf::124              365                       # What write queue length does an incoming req see (Count)
board.memory.mem_ctrl.wrQLenPdf::125              269                       # What write queue length does an incoming req see (Count)
board.memory.mem_ctrl.wrQLenPdf::126              187                       # What write queue length does an incoming req see (Count)
board.memory.mem_ctrl.wrQLenPdf::127              303                       # What write queue length does an incoming req see (Count)
board.memory.mem_ctrl.rdPerTurnAround::samples         6909                       # Reads before turning the bus around for writes (Count)
board.memory.mem_ctrl.rdPerTurnAround::mean    15.695614                       # Reads before turning the bus around for writes (Count)
board.memory.mem_ctrl.rdPerTurnAround::gmean    14.769969                       # Reads before turning the bus around for writes (Count)
board.memory.mem_ctrl.rdPerTurnAround::stdev     5.345542                       # Reads before turning the bus around for writes (Count)
board.memory.mem_ctrl.rdPerTurnAround::2            5      0.07%      0.07% # Reads before turning the bus around for writes (Count)
board.memory.mem_ctrl.rdPerTurnAround::3           12      0.17%      0.25% # Reads before turning the bus around for writes (Count)
board.memory.mem_ctrl.rdPerTurnAround::4           30      0.43%      0.68% # Reads before turning the bus around for writes (Count)
board.memory.mem_ctrl.rdPerTurnAround::5           44      0.64%      1.32% # Reads before turning the bus around for writes (Count)
board.memory.mem_ctrl.rdPerTurnAround::6           78      1.13%      2.45% # Reads before turning the bus around for writes (Count)
board.memory.mem_ctrl.rdPerTurnAround::7          145      2.10%      4.54% # Reads before turning the bus around for writes (Count)
board.memory.mem_ctrl.rdPerTurnAround::8          202      2.92%      7.47% # Reads before turning the bus around for writes (Count)
board.memory.mem_ctrl.rdPerTurnAround::9          238      3.44%     10.91% # Reads before turning the bus around for writes (Count)
board.memory.mem_ctrl.rdPerTurnAround::10          308      4.46%     15.37% # Reads before turning the bus around for writes (Count)
board.memory.mem_ctrl.rdPerTurnAround::11          366      5.30%     20.67% # Reads before turning the bus around for writes (Count)
board.memory.mem_ctrl.rdPerTurnAround::12          414      5.99%     26.66% # Reads before turning the bus around for writes (Count)
board.memory.mem_ctrl.rdPerTurnAround::13          451      6.53%     33.19% # Reads before turning the bus around for writes (Count)
board.memory.mem_ctrl.rdPerTurnAround::14          430      6.22%     39.41% # Reads before turning the bus around for writes (Count)
board.memory.mem_ctrl.rdPerTurnAround::15          445      6.44%     45.85% # Reads before turning the bus around for writes (Count)
board.memory.mem_ctrl.rdPerTurnAround::16         1389     20.10%     65.96% # Reads before turning the bus around for writes (Count)
board.memory.mem_ctrl.rdPerTurnAround::17          388      5.62%     71.57% # Reads before turning the bus around for writes (Count)
board.memory.mem_ctrl.rdPerTurnAround::18          355      5.14%     76.71% # Reads before turning the bus around for writes (Count)
board.memory.mem_ctrl.rdPerTurnAround::19          298      4.31%     81.02% # Reads before turning the bus around for writes (Count)
board.memory.mem_ctrl.rdPerTurnAround::20          254      3.68%     84.70% # Reads before turning the bus around for writes (Count)
board.memory.mem_ctrl.rdPerTurnAround::21          217      3.14%     87.84% # Reads before turning the bus around for writes (Count)
board.memory.mem_ctrl.rdPerTurnAround::22          171      2.48%     90.32% # Reads before turning the bus around for writes (Count)
board.memory.mem_ctrl.rdPerTurnAround::23          126      1.82%     92.14% # Reads before turning the bus around for writes (Count)
board.memory.mem_ctrl.rdPerTurnAround::24          109      1.58%     93.72% # Reads before turning the bus around for writes (Count)
board.memory.mem_ctrl.rdPerTurnAround::25           90      1.30%     95.02% # Reads before turning the bus around for writes (Count)
board.memory.mem_ctrl.rdPerTurnAround::26           73      1.06%     96.08% # Reads before turning the bus around for writes (Count)
board.memory.mem_ctrl.rdPerTurnAround::27           60      0.87%     96.95% # Reads before turning the bus around for writes (Count)
board.memory.mem_ctrl.rdPerTurnAround::28           46      0.67%     97.61% # Reads before turning the bus around for writes (Count)
board.memory.mem_ctrl.rdPerTurnAround::29           27      0.39%     98.00% # Reads before turning the bus around for writes (Count)
board.memory.mem_ctrl.rdPerTurnAround::30           34      0.49%     98.49% # Reads before turning the bus around for writes (Count)
board.memory.mem_ctrl.rdPerTurnAround::31           28      0.41%     98.90% # Reads before turning the bus around for writes (Count)
board.memory.mem_ctrl.rdPerTurnAround::32           21      0.30%     99.20% # Reads before turning the bus around for writes (Count)
board.memory.mem_ctrl.rdPerTurnAround::33           15      0.22%     99.42% # Reads before turning the bus around for writes (Count)
board.memory.mem_ctrl.rdPerTurnAround::34            9      0.13%     99.55% # Reads before turning the bus around for writes (Count)
board.memory.mem_ctrl.rdPerTurnAround::35            4      0.06%     99.61% # Reads before turning the bus around for writes (Count)
board.memory.mem_ctrl.rdPerTurnAround::36            8      0.12%     99.72% # Reads before turning the bus around for writes (Count)
board.memory.mem_ctrl.rdPerTurnAround::37            5      0.07%     99.80% # Reads before turning the bus around for writes (Count)
board.memory.mem_ctrl.rdPerTurnAround::38            2      0.03%     99.83% # Reads before turning the bus around for writes (Count)
board.memory.mem_ctrl.rdPerTurnAround::39            3      0.04%     99.87% # Reads before turning the bus around for writes (Count)
board.memory.mem_ctrl.rdPerTurnAround::40            1      0.01%     99.88% # Reads before turning the bus around for writes (Count)
board.memory.mem_ctrl.rdPerTurnAround::41            2      0.03%     99.91% # Reads before turning the bus around for writes (Count)
board.memory.mem_ctrl.rdPerTurnAround::42            2      0.03%     99.94% # Reads before turning the bus around for writes (Count)
board.memory.mem_ctrl.rdPerTurnAround::45            2      0.03%     99.97% # Reads before turning the bus around for writes (Count)
board.memory.mem_ctrl.rdPerTurnAround::47            1      0.01%     99.99% # Reads before turning the bus around for writes (Count)
board.memory.mem_ctrl.rdPerTurnAround::48            1      0.01%    100.00% # Reads before turning the bus around for writes (Count)
board.memory.mem_ctrl.rdPerTurnAround::total         6909                       # Reads before turning the bus around for writes (Count)
board.memory.mem_ctrl.wrPerTurnAround::samples         6909                       # Writes before turning the bus around for reads (Count)
board.memory.mem_ctrl.wrPerTurnAround::mean    16.001158                       # Writes before turning the bus around for reads (Count)
board.memory.mem_ctrl.wrPerTurnAround::gmean    16.001028                       # Writes before turning the bus around for reads (Count)
board.memory.mem_ctrl.wrPerTurnAround::stdev     0.070146                       # Writes before turning the bus around for reads (Count)
board.memory.mem_ctrl.wrPerTurnAround::16         6907     99.97%     99.97% # Writes before turning the bus around for reads (Count)
board.memory.mem_ctrl.wrPerTurnAround::19            1      0.01%     99.99% # Writes before turning the bus around for reads (Count)
board.memory.mem_ctrl.wrPerTurnAround::21            1      0.01%    100.00% # Writes before turning the bus around for reads (Count)
board.memory.mem_ctrl.wrPerTurnAround::total         6909                       # Writes before turning the bus around for reads (Count)
board.memory.mem_ctrl.bytesReadWrQ            1531904                       # Total number of bytes read from write queue (Byte)
board.memory.mem_ctrl.bytesReadSys            8472704                       # Total read bytes from the system interface side (Byte)
board.memory.mem_ctrl.bytesWrittenSys         8634560                       # Total written bytes from the system interface side (Byte)
board.memory.mem_ctrl.avgRdBWSys         8472704000.00000000                       # Average system read bandwidth in Byte/s ((Byte/Second))
board.memory.mem_ctrl.avgWrBWSys         8634560000.00000000                       # Average system write bandwidth in Byte/s ((Byte/Second))
board.memory.mem_ctrl.totGap                999992869                       # Total gap between requests (Tick)
board.memory.mem_ctrl.avgGap                  3741.07                       # Average gap between requests ((Tick/Count))
board.memory.mem_ctrl.requestorReadBytes::processor.cores.generator      6940288                       # Per-requestor bytes read from memory (Byte)
board.memory.mem_ctrl.requestorWriteBytes::processor.cores.generator      7075328                       # Per-requestor bytes write to memory (Byte)
board.memory.mem_ctrl.requestorReadRate::processor.cores.generator 6940288000.000000000000                       # Per-requestor bytes read from memory rate ((Byte/Second))
board.memory.mem_ctrl.requestorWriteRate::processor.cores.generator 7075328000.000000000000                       # Per-requestor bytes write to memory rate ((Byte/Second))
board.memory.mem_ctrl.requestorReadAccesses::processor.cores.generator       132386                       # Per-requestor read serviced memory accesses (Count)
board.memory.mem_ctrl.requestorWriteAccesses::processor.cores.generator       134915                       # Per-requestor write serviced memory accesses (Count)
board.memory.mem_ctrl.requestorReadTotalLat::processor.cores.generator  13890807772                       # Per-requestor read total memory access latency (Tick)
board.memory.mem_ctrl.requestorWriteTotalLat::processor.cores.generator  97878271895                       # Per-requestor write total memory access latency (Tick)
board.memory.mem_ctrl.requestorReadAvgLat::processor.cores.generator    104926.56                       # Per-requestor read average memory access latency ((Tick/Count))
board.memory.mem_ctrl.requestorWriteAvgLat::processor.cores.generator    725481.02                       # Per-requestor write average memory access latency ((Tick/Count))
board.memory.mem_ctrl.dram.bytesRead::processor.cores.generator      8472128                       # Number of bytes read from this memory (Byte)
board.memory.mem_ctrl.dram.bytesRead::total      8472128                       # Number of bytes read from this memory (Byte)
board.memory.mem_ctrl.dram.bytesWritten::processor.cores.generator      8634560                       # Number of bytes written to this memory (Byte)
board.memory.mem_ctrl.dram.bytesWritten::total      8634560                       # Number of bytes written to this memory (Byte)
board.memory.mem_ctrl.dram.numReads::processor.cores.generator       132377                       # Number of read requests responded to by this memory (Count)
board.memory.mem_ctrl.dram.numReads::total       132377                       # Number of read requests responded to by this memory (Count)
board.memory.mem_ctrl.dram.numWrites::processor.cores.generator       134915                       # Number of write requests responded to by this memory (Count)
board.memory.mem_ctrl.dram.numWrites::total       134915                       # Number of write requests responded to by this memory (Count)
board.memory.mem_ctrl.dram.bwRead::processor.cores.generator   8472128000                       # Total read bandwidth from this memory ((Byte/Second))
board.memory.mem_ctrl.dram.bwRead::total   8472128000                       # Total read bandwidth from this memory ((Byte/Second))
board.memory.mem_ctrl.dram.bwWrite::processor.cores.generator   8634560000                       # Write bandwidth from this memory ((Byte/Second))
board.memory.mem_ctrl.dram.bwWrite::total   8634560000                       # Write bandwidth from this memory ((Byte/Second))
board.memory.mem_ctrl.dram.bwTotal::processor.cores.generator  17106688000                       # Total bandwidth to/from this memory ((Byte/Second))
board.memory.mem_ctrl.dram.bwTotal::total  17106688000                       # Total bandwidth to/from this memory ((Byte/Second))
board.memory.mem_ctrl.dram.readBursts          108442                       # Number of DRAM read bursts (Count)
board.memory.mem_ctrl.dram.writeBursts         110552                       # Number of DRAM write bursts (Count)
board.memory.mem_ctrl.dram.perBankRdBursts::0        27165                       # Per bank write bursts (Count)
board.memory.mem_ctrl.dram.perBankRdBursts::1        27153                       # Per bank write bursts (Count)
board.memory.mem_ctrl.dram.perBankRdBursts::2        27241                       # Per bank write bursts (Count)
board.memory.mem_ctrl.dram.perBankRdBursts::3        26883                       # Per bank write bursts (Count)
board.memory.mem_ctrl.dram.perBankRdBursts::4            0                       # Per bank write bursts (Count)
board.memory.mem_ctrl.dram.perBankRdBursts::5            0                       # Per bank write bursts (Count)
board.memory.mem_ctrl.dram.perBankRdBursts::6            0                       # Per bank write bursts (Count)
board.memory.mem_ctrl.dram.perBankRdBursts::7            0                       # Per bank write bursts (Count)
board.memory.mem_ctrl.dram.perBankRdBursts::8            0                       # Per bank write bursts (Count)
board.memory.mem_ctrl.dram.perBankRdBursts::9            0                       # Per bank write bursts (Count)
board.memory.mem_ctrl.dram.perBankRdBursts::10            0                       # Per bank write bursts (Count)
board.memory.mem_ctrl.dram.perBankRdBursts::11            0                       # Per bank write bursts (Count)
board.memory.mem_ctrl.dram.perBankRdBursts::12            0                       # Per bank write bursts (Count)
board.memory.mem_ctrl.dram.perBankRdBursts::13            0                       # Per bank write bursts (Count)
board.memory.mem_ctrl.dram.perBankRdBursts::14            0                       # Per bank write bursts (Count)
board.memory.mem_ctrl.dram.perBankRdBursts::15            0                       # Per bank write bursts (Count)
board.memory.mem_ctrl.dram.perBankRdBursts::16            0                       # Per bank write bursts (Count)
board.memory.mem_ctrl.dram.perBankRdBursts::17            0                       # Per bank write bursts (Count)
board.memory.mem_ctrl.dram.perBankRdBursts::18            0                       # Per bank write bursts (Count)
board.memory.mem_ctrl.dram.perBankRdBursts::19            0                       # Per bank write bursts (Count)
board.memory.mem_ctrl.dram.perBankRdBursts::20            0                       # Per bank write bursts (Count)
board.memory.mem_ctrl.dram.perBankRdBursts::21            0                       # Per bank write bursts (Count)
board.memory.mem_ctrl.dram.perBankRdBursts::22            0                       # Per bank write bursts (Count)
board.memory.mem_ctrl.dram.perBankRdBursts::23            0                       # Per bank write bursts (Count)
board.memory.mem_ctrl.dram.perBankRdBursts::24            0                       # Per bank write bursts (Count)
board.memory.mem_ctrl.dram.perBankRdBursts::25            0                       # Per bank write bursts (Count)
board.memory.mem_ctrl.dram.perBankRdBursts::26            0                       # Per bank write bursts (Count)
board.memory.mem_ctrl.dram.perBankRdBursts::27            0                       # Per bank write bursts (Count)
board.memory.mem_ctrl.dram.perBankRdBursts::28            0                       # Per bank write bursts (Count)
board.memory.mem_ctrl.dram.perBankRdBursts::29            0                       # Per bank write bursts (Count)
board.memory.mem_ctrl.dram.perBankRdBursts::30            0                       # Per bank write bursts (Count)
board.memory.mem_ctrl.dram.perBankRdBursts::31            0                       # Per bank write bursts (Count)
board.memory.mem_ctrl.dram.perBankWrBursts::0        27652                       # Per bank write bursts (Count)
board.memory.mem_ctrl.dram.perBankWrBursts::1        27654                       # Per bank write bursts (Count)
board.memory.mem_ctrl.dram.perBankWrBursts::2        27836                       # Per bank write bursts (Count)
board.memory.mem_ctrl.dram.perBankWrBursts::3        27410                       # Per bank write bursts (Count)
board.memory.mem_ctrl.dram.perBankWrBursts::4            0                       # Per bank write bursts (Count)
board.memory.mem_ctrl.dram.perBankWrBursts::5            0                       # Per bank write bursts (Count)
board.memory.mem_ctrl.dram.perBankWrBursts::6            0                       # Per bank write bursts (Count)
board.memory.mem_ctrl.dram.perBankWrBursts::7            0                       # Per bank write bursts (Count)
board.memory.mem_ctrl.dram.perBankWrBursts::8            0                       # Per bank write bursts (Count)
board.memory.mem_ctrl.dram.perBankWrBursts::9            0                       # Per bank write bursts (Count)
board.memory.mem_ctrl.dram.perBankWrBursts::10            0                       # Per bank write bursts (Count)
board.memory.mem_ctrl.dram.perBankWrBursts::11            0                       # Per bank write bursts (Count)
board.memory.mem_ctrl.dram.perBankWrBursts::12            0                       # Per bank write bursts (Count)
board.memory.mem_ctrl.dram.perBankWrBursts::13            0                       # Per bank write bursts (Count)
board.memory.mem_ctrl.dram.perBankWrBursts::14            0                       # Per bank write bursts (Count)
board.memory.mem_ctrl.dram.perBankWrBursts::15            0                       # Per bank write bursts (Count)
board.memory.mem_ctrl.dram.perBankWrBursts::16            0                       # Per bank write bursts (Count)
board.memory.mem_ctrl.dram.perBankWrBursts::17            0                       # Per bank write bursts (Count)
board.memory.mem_ctrl.dram.perBankWrBursts::18            0                       # Per bank write bursts (Count)
board.memory.mem_ctrl.dram.perBankWrBursts::19            0                       # Per bank write bursts (Count)
board.memory.mem_ctrl.dram.perBankWrBursts::20            0                       # Per bank write bursts (Count)
board.memory.mem_ctrl.dram.perBankWrBursts::21            0                       # Per bank write bursts (Count)
board.memory.mem_ctrl.dram.perBankWrBursts::22            0                       # Per bank write bursts (Count)
board.memory.mem_ctrl.dram.perBankWrBursts::23            0                       # Per bank write bursts (Count)
board.memory.mem_ctrl.dram.perBankWrBursts::24            0                       # Per bank write bursts (Count)
board.memory.mem_ctrl.dram.perBankWrBursts::25            0                       # Per bank write bursts (Count)
board.memory.mem_ctrl.dram.perBankWrBursts::26            0                       # Per bank write bursts (Count)
board.memory.mem_ctrl.dram.perBankWrBursts::27            0                       # Per bank write bursts (Count)
board.memory.mem_ctrl.dram.perBankWrBursts::28            0                       # Per bank write bursts (Count)
board.memory.mem_ctrl.dram.perBankWrBursts::29            0                       # Per bank write bursts (Count)
board.memory.mem_ctrl.dram.perBankWrBursts::30            0                       # Per bank write bursts (Count)
board.memory.mem_ctrl.dram.perBankWrBursts::31            0                       # Per bank write bursts (Count)
board.memory.mem_ctrl.dram.totQLat        11993940308                       # Total ticks spent queuing (Tick)
board.memory.mem_ctrl.dram.totBusLat        361328744                       # Total ticks spent in databus transfers (Tick)
board.memory.mem_ctrl.dram.totMemAccLat   13890807772                       # Total ticks spent from burst creation until serviced by the DRAM (Tick)
board.memory.mem_ctrl.dram.avgQLat          110602.35                       # Average queueing delay per DRAM burst ((Tick/Count))
board.memory.mem_ctrl.dram.avgBusLat          3332.00                       # Average bus latency per DRAM burst ((Tick/Count))
board.memory.mem_ctrl.dram.avgMemAccLat     128094.35                       # Average memory access latency per DRAM burst ((Tick/Count))
board.memory.mem_ctrl.dram.readRowHits          95760                       # Number of row buffer hits during reads (Count)
board.memory.mem_ctrl.dram.writeRowHits        109337                       # Number of row buffer hits during writes (Count)
board.memory.mem_ctrl.dram.readRowHitRate        88.31                       # Row buffer hit rate for reads (Ratio)
board.memory.mem_ctrl.dram.writeRowHitRate        98.90                       # Row buffer hit rate for writes (Ratio)
board.memory.mem_ctrl.dram.bytesPerActivate::samples        13893                       # Bytes accessed per row activation (Byte)
board.memory.mem_ctrl.dram.bytesPerActivate::mean  1008.678327                       # Bytes accessed per row activation (Byte)
board.memory.mem_ctrl.dram.bytesPerActivate::gmean   994.692179                       # Bytes accessed per row activation (Byte)
board.memory.mem_ctrl.dram.bytesPerActivate::stdev   101.686648                       # Bytes accessed per row activation (Byte)
board.memory.mem_ctrl.dram.bytesPerActivate::0-127           47      0.34%      0.34% # Bytes accessed per row activation (Byte)
board.memory.mem_ctrl.dram.bytesPerActivate::128-255           53      0.38%      0.72% # Bytes accessed per row activation (Byte)
board.memory.mem_ctrl.dram.bytesPerActivate::256-383           45      0.32%      1.04% # Bytes accessed per row activation (Byte)
board.memory.mem_ctrl.dram.bytesPerActivate::384-511           51      0.37%      1.41% # Bytes accessed per row activation (Byte)
board.memory.mem_ctrl.dram.bytesPerActivate::512-639           49      0.35%      1.76% # Bytes accessed per row activation (Byte)
board.memory.mem_ctrl.dram.bytesPerActivate::640-767           50      0.36%      2.12% # Bytes accessed per row activation (Byte)
board.memory.mem_ctrl.dram.bytesPerActivate::768-895           47      0.34%      2.46% # Bytes accessed per row activation (Byte)
board.memory.mem_ctrl.dram.bytesPerActivate::896-1023           64      0.46%      2.92% # Bytes accessed per row activation (Byte)
board.memory.mem_ctrl.dram.bytesPerActivate::1024-1151        13487     97.08%    100.00% # Bytes accessed per row activation (Byte)
board.memory.mem_ctrl.dram.bytesPerActivate::total        13893                       # Bytes accessed per row activation (Byte)
board.memory.mem_ctrl.dram.dramBytesRead      6940288                       # Total bytes read (Byte)
board.memory.mem_ctrl.dram.dramBytesWritten      7075328                       # Total bytes written (Byte)
board.memory.mem_ctrl.dram.avgRdBW        6940.288000                       # Average DRAM read bandwidth in MiBytes/s ((Byte/Second))
board.memory.mem_ctrl.dram.avgWrBW        7075.328000                       # Average DRAM write bandwidth in MiBytes/s ((Byte/Second))
board.memory.mem_ctrl.dram.peakBW            19207.00                       # Theoretical peak bandwidth in MiByte/s ((Byte/Second))
board.memory.mem_ctrl.dram.busUtil              72.97                       # Data bus utilization in percentage (Ratio)
board.memory.mem_ctrl.dram.busUtilRead          36.13                       # Data bus utilization in percentage for reads (Ratio)
board.memory.mem_ctrl.dram.busUtilWrite         36.84                       # Data bus utilization in percentage for writes (Ratio)
board.memory.mem_ctrl.dram.pageHitRate          93.65                       # Row buffer hit rate, read and write combined (Ratio)
board.memory.mem_ctrl.dram.power_state.pwrStateResidencyTicks::UNDEFINED   1000000000                       # Cumulative time (in ticks) in various power states (Tick)
board.memory.mem_ctrl.dram.rank0.actEnergy 21670648.272000                       # Energy for activate commands per rank (pJ) (Joule)
board.memory.mem_ctrl.dram.rank0.preEnergy 38246017.471200                       # Energy for precharge commands per rank (pJ) (Joule)
board.memory.mem_ctrl.dram.rank0.readEnergy 297443079.158400                       # Energy for read commands per rank (pJ) (Joule)
board.memory.mem_ctrl.dram.rank0.writeEnergy 260786563.632000                       # Energy for write commands per rank (pJ) (Joule)
board.memory.mem_ctrl.dram.rank0.refreshEnergy 86509510.348800                       # Energy for refresh commands per rank (pJ) (Joule)
board.memory.mem_ctrl.dram.rank0.actBackEnergy 471107583.559200                       # Energy for active background per rank (pJ) (Joule)
board.memory.mem_ctrl.dram.rank0.preBackEnergy 1168588.377600                       # Energy for precharge background per rank (pJ) (Joule)
board.memory.mem_ctrl.dram.rank0.actPowerDownEnergy            0                       # Energy for active power-down per rank (pJ) (Joule)
board.memory.mem_ctrl.dram.rank0.prePowerDownEnergy            0                       # Energy for precharge power-down per rank (pJ) (Joule)
board.memory.mem_ctrl.dram.rank0.selfRefreshEnergy            0                       # Energy for self refresh per rank (pJ) (Joule)
board.memory.mem_ctrl.dram.rank0.totalEnergy 1176931990.819200                       # Total energy per rank (pJ) (Joule)
board.memory.mem_ctrl.dram.rank0.averagePower  1176.931991                       # Core power per rank (mW) (Watt)
board.memory.mem_ctrl.dram.rank0.totalIdleTime            0                       # Total Idle time Per DRAM Rank (Tick)
board.memory.mem_ctrl.dram.rank0.pwrStateTime::IDLE         3725                       # Time in different power states (Tick)
board.memory.mem_ctrl.dram.rank0.pwrStateTime::REF     44800000                       # Time in different power states (Tick)
board.memory.mem_ctrl.dram.rank0.pwrStateTime::SREF            0                       # Time in different power states (Tick)
board.memory.mem_ctrl.dram.rank0.pwrStateTime::PRE_PDN            0                       # Time in different power states (Tick)
board.memory.mem_ctrl.dram.rank0.pwrStateTime::ACT    955196275                       # Time in different power states (Tick)
board.memory.mem_ctrl.dram.rank0.pwrStateTime::ACT_PDN            0                       # Time in different power states (Tick)
board.memory.mem_ctrl.dram.rank1.actEnergy            0                       # Energy for activate commands per rank (pJ) (Joule)
board.memory.mem_ctrl.dram.rank1.preEnergy            0                       # Energy for precharge commands per rank (pJ) (Joule)
board.memory.mem_ctrl.dram.rank1.readEnergy            0                       # Energy for read commands per rank (pJ) (Joule)
board.memory.mem_ctrl.dram.rank1.writeEnergy            0                       # Energy for write commands per rank (pJ) (Joule)
board.memory.mem_ctrl.dram.rank1.refreshEnergy 86509510.348800                       # Energy for refresh commands per rank (pJ) (Joule)
board.memory.mem_ctrl.dram.rank1.actBackEnergy 20366378.188800                       # Energy for active background per rank (pJ) (Joule)
board.memory.mem_ctrl.dram.rank1.preBackEnergy 312340181.932800                       # Energy for precharge background per rank (pJ) (Joule)
board.memory.mem_ctrl.dram.rank1.actPowerDownEnergy            0                       # Energy for active power-down per rank (pJ) (Joule)
board.memory.mem_ctrl.dram.rank1.prePowerDownEnergy            0                       # Energy for precharge power-down per rank (pJ) (Joule)
board.memory.mem_ctrl.dram.rank1.selfRefreshEnergy            0                       # Energy for self refresh per rank (pJ) (Joule)
board.memory.mem_ctrl.dram.rank1.totalEnergy 419216070.470401                       # Total energy per rank (pJ) (Joule)
board.memory.mem_ctrl.dram.rank1.averagePower   419.216070                       # Core power per rank (mW) (Watt)
board.memory.mem_ctrl.dram.rank1.totalIdleTime            0                       # Total Idle time Per DRAM Rank (Tick)
board.memory.mem_ctrl.dram.rank1.pwrStateTime::IDLE    955200000                       # Time in different power states (Tick)
board.memory.mem_ctrl.dram.rank1.pwrStateTime::REF     44800000                       # Time in different power states (Tick)
board.memory.mem_ctrl.dram.rank1.pwrStateTime::SREF            0                       # Time in different power states (Tick)
board.memory.mem_ctrl.dram.rank1.pwrStateTime::PRE_PDN            0                       # Time in different power states (Tick)
board.memory.mem_ctrl.dram.rank1.pwrStateTime::ACT            0                       # Time in different power states (Tick)
board.memory.mem_ctrl.dram.rank1.pwrStateTime::ACT_PDN            0                       # Time in different power states (Tick)
board.memory.mem_ctrl.power_state.pwrStateResidencyTicks::UNDEFINED   1000000000                       # Cumulative time (in ticks) in various power states (Tick)
board.processor.cores.generator.numSuppressed            0                       # Number of suppressed packets to non-memory space (Count)
board.processor.cores.generator.numPackets       267301                       # Number of packets generated (Count)
board.processor.cores.generator.numRetries          287                       # Number of retries (Count)
board.processor.cores.generator.retryTicks      4879748                       # Time spent waiting due to back-pressure (Tick)
board.processor.cores.generator.bytesRead      8472000                       # Number of bytes read (Byte)
board.processor.cores.generator.bytesWritten      8634496                       # Number of bytes written (Byte)
board.processor.cores.generator.totalReadLatency  16790407720                       # Total latency of read requests (Tick)
board.processor.cores.generator.totalWriteLatency   1917940388                       # Total latency of write requests (Tick)
board.processor.cores.generator.totalReads       132375                       # Total num of reads (Count)
board.processor.cores.generator.totalWrites       134914                       # Total num of writes (Count)
board.processor.cores.generator.avgReadLatency 126839.718376                       # Avg latency of read requests ((Tick/Count))
board.processor.cores.generator.avgWriteLatency 14216.021970                       # Avg latency of write requests ((Tick/Count))
board.processor.cores.generator.readBW     8472000000                       # Read bandwidth ((Byte/Second))
board.processor.cores.generator.writeBW    8634496000                       # Write bandwidth ((Byte/Second))
board.processor.cores.generator.power_state.pwrStateResidencyTicks::UNDEFINED   1000000000                       # Cumulative time (in ticks) in various power states (Tick)
board.workload.inst.arm                             0                       # number of arm instructions executed (Count)
board.workload.inst.quiesce                         0                       # number of quiesce instructions executed (Count)

---------- End Simulation Statistics   ----------
