
---------- Begin Simulation Statistics ----------
simSeconds                                   0.001000                       # Number of seconds simulated (Second)
simTicks                                   1000000000                       # Number of ticks simulated (Tick)
finalTick                                  1000000000                       # Number of ticks from beginning of simulation (restored from checkpoints and never reset) (Tick)
simFreq                                  1000000000000                       # The number of ticks per simulated second ((Tick/Second))
hostSeconds                                      3.24                       # Real time elapsed on the host (Second)
hostTickRate                                308647119                       # The number of ticks simulated per host second (ticks/s) ((Tick/Second))
hostMemory                                    1281060                       # Number of bytes of host memory used (Byte)
board.cache_hierarchy.l1d-cache-0.demandHits::processor.cores.generator        16723                       # number of demand (read+write) hits (Count)
board.cache_hierarchy.l1d-cache-0.demandHits::total        16723                       # number of demand (read+write) hits (Count)
board.cache_hierarchy.l1d-cache-0.overallHits::processor.cores.generator        16723                       # number of overall hits (Count)
board.cache_hierarchy.l1d-cache-0.overallHits::total        16723                       # number of overall hits (Count)
board.cache_hierarchy.l1d-cache-0.demandMisses::processor.cores.generator       251536                       # number of demand (read+write) misses (Count)
board.cache_hierarchy.l1d-cache-0.demandMisses::total       251536                       # number of demand (read+write) misses (Count)
board.cache_hierarchy.l1d-cache-0.overallMisses::processor.cores.generator       251536                       # number of overall misses (Count)
board.cache_hierarchy.l1d-cache-0.overallMisses::total       251536                       # number of overall misses (Count)
board.cache_hierarchy.l1d-cache-0.demandMissLatency::processor.cores.generator   1418902860                       # number of demand (read+write) miss ticks (Tick)
board.cache_hierarchy.l1d-cache-0.demandMissLatency::total   1418902860                       # number of demand (read+write) miss ticks (Tick)
board.cache_hierarchy.l1d-cache-0.overallMissLatency::processor.cores.generator   1418902860                       # number of overall miss ticks (Tick)
board.cache_hierarchy.l1d-cache-0.overallMissLatency::total   1418902860                       # number of overall miss ticks (Tick)
board.cache_hierarchy.l1d-cache-0.demandAccesses::processor.cores.generator       268259                       # number of demand (read+write) accesses (Count)
board.cache_hierarchy.l1d-cache-0.demandAccesses::total       268259                       # number of demand (read+write) accesses (Count)
board.cache_hierarchy.l1d-cache-0.overallAccesses::processor.cores.generator       268259                       # number of overall (read+write) accesses (Count)
board.cache_hierarchy.l1d-cache-0.overallAccesses::total       268259                       # number of overall (read+write) accesses (Count)
board.cache_hierarchy.l1d-cache-0.demandMissRate::processor.cores.generator     0.937661                       # miss rate for demand accesses (Ratio)
board.cache_hierarchy.l1d-cache-0.demandMissRate::total     0.937661                       # miss rate for demand accesses (Ratio)
board.cache_hierarchy.l1d-cache-0.overallMissRate::processor.cores.generator     0.937661                       # miss rate for overall accesses (Ratio)
board.cache_hierarchy.l1d-cache-0.overallMissRate::total     0.937661                       # miss rate for overall accesses (Ratio)
board.cache_hierarchy.l1d-cache-0.demandAvgMissLatency::processor.cores.generator  5640.953422                       # average overall miss latency in ticks ((Tick/Count))
board.cache_hierarchy.l1d-cache-0.demandAvgMissLatency::total  5640.953422                       # average overall miss latency in ticks ((Tick/Count))
board.cache_hierarchy.l1d-cache-0.overallAvgMissLatency::processor.cores.generator  5640.953422                       # average overall miss latency ((Tick/Count))
board.cache_hierarchy.l1d-cache-0.overallAvgMissLatency::total  5640.953422                       # average overall miss latency ((Tick/Count))
board.cache_hierarchy.l1d-cache-0.blockedCycles::no_mshrs         2661                       # number of cycles access was blocked (Cycle)
board.cache_hierarchy.l1d-cache-0.blockedCycles::no_targets            0                       # number of cycles access was blocked (Cycle)
board.cache_hierarchy.l1d-cache-0.blockedCauses::no_mshrs           78                       # number of times access was blocked (Count)
board.cache_hierarchy.l1d-cache-0.blockedCauses::no_targets            0                       # number of times access was blocked (Count)
board.cache_hierarchy.l1d-cache-0.avgBlocked::no_mshrs    34.115385                       # average number of cycles each access was blocked ((Cycle/Count))
board.cache_hierarchy.l1d-cache-0.avgBlocked::no_targets          nan                       # average number of cycles each access was blocked ((Cycle/Count))
board.cache_hierarchy.l1d-cache-0.demandMshrHits::processor.cores.generator           90                       # number of demand (read+write) MSHR hits (Count)
board.cache_hierarchy.l1d-cache-0.demandMshrHits::total           90                       # number of demand (read+write) MSHR hits (Count)
board.cache_hierarchy.l1d-cache-0.overallMshrHits::processor.cores.generator           90                       # number of overall MSHR hits (Count)
board.cache_hierarchy.l1d-cache-0.overallMshrHits::total           90                       # number of overall MSHR hits (Count)
board.cache_hierarchy.l1d-cache-0.demandMshrMisses::processor.cores.generator       251446                       # number of demand (read+write) MSHR misses (Count)
board.cache_hierarchy.l1d-cache-0.demandMshrMisses::total       251446                       # number of demand (read+write) MSHR misses (Count)
board.cache_hierarchy.l1d-cache-0.overallMshrMisses::processor.cores.generator       251446                       # number of overall MSHR misses (Count)
board.cache_hierarchy.l1d-cache-0.overallMshrMisses::total       251446                       # number of overall MSHR misses (Count)
board.cache_hierarchy.l1d-cache-0.demandMshrMissLatency::processor.cores.generator   1334398002                       # number of demand (read+write) MSHR miss ticks (Tick)
board.cache_hierarchy.l1d-cache-0.demandMshrMissLatency::total   1334398002                       # number of demand (read+write) MSHR miss ticks (Tick)
board.cache_hierarchy.l1d-cache-0.overallMshrMissLatency::processor.cores.generator   1334398002                       # number of overall MSHR miss ticks (Tick)
board.cache_hierarchy.l1d-cache-0.overallMshrMissLatency::total   1334398002                       # number of overall MSHR miss ticks (Tick)
board.cache_hierarchy.l1d-cache-0.demandMshrMissRate::processor.cores.generator     0.937325                       # mshr miss ratio for demand accesses (Ratio)
board.cache_hierarchy.l1d-cache-0.demandMshrMissRate::total     0.937325                       # mshr miss ratio for demand accesses (Ratio)
board.cache_hierarchy.l1d-cache-0.overallMshrMissRate::processor.cores.generator     0.937325                       # mshr miss ratio for overall accesses (Ratio)
board.cache_hierarchy.l1d-cache-0.overallMshrMissRate::total     0.937325                       # mshr miss ratio for overall accesses (Ratio)
board.cache_hierarchy.l1d-cache-0.demandAvgMshrMissLatency::processor.cores.generator  5306.896916                       # average overall mshr miss latency ((Tick/Count))
board.cache_hierarchy.l1d-cache-0.demandAvgMshrMissLatency::total  5306.896916                       # average overall mshr miss latency ((Tick/Count))
board.cache_hierarchy.l1d-cache-0.overallAvgMshrMissLatency::processor.cores.generator  5306.896916                       # average overall mshr miss latency ((Tick/Count))
board.cache_hierarchy.l1d-cache-0.overallAvgMshrMissLatency::total  5306.896916                       # average overall mshr miss latency ((Tick/Count))
board.cache_hierarchy.l1d-cache-0.replacements       251189                       # number of replacements (Count)
board.cache_hierarchy.l1d-cache-0.ReadReq.hits::processor.cores.generator        16723                       # number of ReadReq hits (Count)
board.cache_hierarchy.l1d-cache-0.ReadReq.hits::total        16723                       # number of ReadReq hits (Count)
board.cache_hierarchy.l1d-cache-0.ReadReq.misses::processor.cores.generator       251536                       # number of ReadReq misses (Count)
board.cache_hierarchy.l1d-cache-0.ReadReq.misses::total       251536                       # number of ReadReq misses (Count)
board.cache_hierarchy.l1d-cache-0.ReadReq.missLatency::processor.cores.generator   1418902860                       # number of ReadReq miss ticks (Tick)
board.cache_hierarchy.l1d-cache-0.ReadReq.missLatency::total   1418902860                       # number of ReadReq miss ticks (Tick)
board.cache_hierarchy.l1d-cache-0.ReadReq.accesses::processor.cores.generator       268259                       # number of ReadReq accesses(hits+misses) (Count)
board.cache_hierarchy.l1d-cache-0.ReadReq.accesses::total       268259                       # number of ReadReq accesses(hits+misses) (Count)
board.cache_hierarchy.l1d-cache-0.ReadReq.missRate::processor.cores.generator     0.937661                       # miss rate for ReadReq accesses (Ratio)
board.cache_hierarchy.l1d-cache-0.ReadReq.missRate::total     0.937661                       # miss rate for ReadReq accesses (Ratio)
board.cache_hierarchy.l1d-cache-0.ReadReq.avgMissLatency::processor.cores.generator  5640.953422                       # average ReadReq miss latency ((Tick/Count))
board.cache_hierarchy.l1d-cache-0.ReadReq.avgMissLatency::total  5640.953422                       # average ReadReq miss latency ((Tick/Count))
board.cache_hierarchy.l1d-cache-0.ReadReq.mshrHits::processor.cores.generator           90                       # number of ReadReq MSHR hits (Count)
board.cache_hierarchy.l1d-cache-0.ReadReq.mshrHits::total           90                       # number of ReadReq MSHR hits (Count)
board.cache_hierarchy.l1d-cache-0.ReadReq.mshrMisses::processor.cores.generator       251446                       # number of ReadReq MSHR misses (Count)
board.cache_hierarchy.l1d-cache-0.ReadReq.mshrMisses::total       251446                       # number of ReadReq MSHR misses (Count)
board.cache_hierarchy.l1d-cache-0.ReadReq.mshrMissLatency::processor.cores.generator   1334398002                       # number of ReadReq MSHR miss ticks (Tick)
board.cache_hierarchy.l1d-cache-0.ReadReq.mshrMissLatency::total   1334398002                       # number of ReadReq MSHR miss ticks (Tick)
board.cache_hierarchy.l1d-cache-0.ReadReq.mshrMissRate::processor.cores.generator     0.937325                       # mshr miss rate for ReadReq accesses (Ratio)
board.cache_hierarchy.l1d-cache-0.ReadReq.mshrMissRate::total     0.937325                       # mshr miss rate for ReadReq accesses (Ratio)
board.cache_hierarchy.l1d-cache-0.ReadReq.avgMshrMissLatency::processor.cores.generator  5306.896916                       # average ReadReq mshr miss latency ((Tick/Count))
board.cache_hierarchy.l1d-cache-0.ReadReq.avgMshrMissLatency::total  5306.896916                       # average ReadReq mshr miss latency ((Tick/Count))
board.cache_hierarchy.l1d-cache-0.power_state.pwrStateResidencyTicks::UNDEFINED   1000000000                       # Cumulative time (in ticks) in various power states (Tick)
board.cache_hierarchy.l1d-cache-0.prefetcher.demandMshrMisses       251446                       # demands not covered by prefetchs (Count)
board.cache_hierarchy.l1d-cache-0.prefetcher.pfIssued            0                       # number of hwpf issued (Count)
board.cache_hierarchy.l1d-cache-0.prefetcher.pfUseful            0                       # number of useful prefetch (Count)
board.cache_hierarchy.l1d-cache-0.prefetcher.pfUsefulButMiss            0                       # number of hit on prefetch but cache block is not in an usable state (Count)
board.cache_hierarchy.l1d-cache-0.prefetcher.accuracy          nan                       # accuracy of the prefetcher (Count)
board.cache_hierarchy.l1d-cache-0.prefetcher.coverage            0                       # coverage brought by this prefetcher (Count)
board.cache_hierarchy.l1d-cache-0.prefetcher.pfHitInCache            0                       # number of prefetches hitting in cache (Count)
board.cache_hierarchy.l1d-cache-0.prefetcher.pfHitInMSHR            0                       # number of prefetches hitting in a MSHR (Count)
board.cache_hierarchy.l1d-cache-0.prefetcher.pfHitInWB            0                       # number of prefetches hit in the Write Buffer (Count)
board.cache_hierarchy.l1d-cache-0.prefetcher.pfLate            0                       # number of late prefetches (hitting in cache, MSHR or WB) (Count)
board.cache_hierarchy.l1d-cache-0.prefetcher.pfIdentified            0                       # number of prefetch candidates identified (Count)
board.cache_hierarchy.l1d-cache-0.prefetcher.pfBufferHit            0                       # number of redundant prefetches already in prefetch queue (Count)
board.cache_hierarchy.l1d-cache-0.prefetcher.pfInCache            0                       # number of redundant prefetches already in cache/mshr dropped (Count)
board.cache_hierarchy.l1d-cache-0.prefetcher.pfRemovedDemand            0                       # number of prefetches dropped due to a demand for the same address (Count)
board.cache_hierarchy.l1d-cache-0.prefetcher.pfRemovedFull            0                       # number of prefetches dropped due to prefetch queue size (Count)
board.cache_hierarchy.l1d-cache-0.prefetcher.pfSpanPage            0                       # number of prefetches that crossed the page (Count)
board.cache_hierarchy.l1d-cache-0.prefetcher.pfUsefulSpanPage            0                       # number of prefetches that is useful and crossed the page (Count)
board.cache_hierarchy.l1d-cache-0.prefetcher.power_state.pwrStateResidencyTicks::UNDEFINED   1000000000                       # Cumulative time (in ticks) in various power states (Tick)
board.cache_hierarchy.l1d-cache-0.tags.tagsInUse   255.851845                       # Average ticks per tags in use ((Tick/Count))
board.cache_hierarchy.l1d-cache-0.tags.totalRefs       268168                       # Total number of references to valid blocks. (Count)
board.cache_hierarchy.l1d-cache-0.tags.sampledRefs       251445                       # Sample count of references to valid blocks. (Count)
board.cache_hierarchy.l1d-cache-0.tags.avgRefs     1.066508                       # Average number of references to valid blocks. ((Count/Count))
board.cache_hierarchy.l1d-cache-0.tags.warmupTick        69930                       # The tick when the warmup percentage was hit. (Tick)
board.cache_hierarchy.l1d-cache-0.tags.occupancies::processor.cores.generator   255.851845                       # Average occupied blocks per tick, per requestor ((Count/Tick))
board.cache_hierarchy.l1d-cache-0.tags.avgOccs::processor.cores.generator     0.999421                       # Average percentage of cache occupancy ((Ratio/Tick))
board.cache_hierarchy.l1d-cache-0.tags.avgOccs::total     0.999421                       # Average percentage of cache occupancy ((Ratio/Tick))
board.cache_hierarchy.l1d-cache-0.tags.occupanciesTaskId::1024          256                       # Occupied blocks per task id (Count)
board.cache_hierarchy.l1d-cache-0.tags.ageTaskId_1024::0          256                       # Occupied blocks per task id, per block age (Count)
board.cache_hierarchy.l1d-cache-0.tags.ratioOccsTaskId::1024            1                       # Ratio of occupied blocks and all blocks, per task id (Ratio)
board.cache_hierarchy.l1d-cache-0.tags.tagAccesses      2397517                       # Number of tag accesses (Count)
board.cache_hierarchy.l1d-cache-0.tags.dataAccesses      2397517                       # Number of data accesses (Count)
board.cache_hierarchy.l1d-cache-0.tags.power_state.pwrStateResidencyTicks::UNDEFINED   1000000000                       # Cumulative time (in ticks) in various power states (Tick)
board.cache_hierarchy.l1i-cache-0.blockedCycles::no_mshrs            0                       # number of cycles access was blocked (Cycle)
board.cache_hierarchy.l1i-cache-0.blockedCycles::no_targets            0                       # number of cycles access was blocked (Cycle)
board.cache_hierarchy.l1i-cache-0.blockedCauses::no_mshrs            0                       # number of times access was blocked (Count)
board.cache_hierarchy.l1i-cache-0.blockedCauses::no_targets            0                       # number of times access was blocked (Count)
board.cache_hierarchy.l1i-cache-0.avgBlocked::no_mshrs          nan                       # average number of cycles each access was blocked ((Cycle/Count))
board.cache_hierarchy.l1i-cache-0.avgBlocked::no_targets          nan                       # average number of cycles each access was blocked ((Cycle/Count))
board.cache_hierarchy.l1i-cache-0.replacements            0                       # number of replacements (Count)
board.cache_hierarchy.l1i-cache-0.power_state.pwrStateResidencyTicks::UNDEFINED   1000000000                       # Cumulative time (in ticks) in various power states (Tick)
board.cache_hierarchy.l1i-cache-0.prefetcher.demandMshrMisses            0                       # demands not covered by prefetchs (Count)
board.cache_hierarchy.l1i-cache-0.prefetcher.pfIssued            0                       # number of hwpf issued (Count)
board.cache_hierarchy.l1i-cache-0.prefetcher.pfUseful            0                       # number of useful prefetch (Count)
board.cache_hierarchy.l1i-cache-0.prefetcher.pfUsefulButMiss            0                       # number of hit on prefetch but cache block is not in an usable state (Count)
board.cache_hierarchy.l1i-cache-0.prefetcher.accuracy          nan                       # accuracy of the prefetcher (Count)
board.cache_hierarchy.l1i-cache-0.prefetcher.coverage          nan                       # coverage brought by this prefetcher (Count)
board.cache_hierarchy.l1i-cache-0.prefetcher.pfHitInCache            0                       # number of prefetches hitting in cache (Count)
board.cache_hierarchy.l1i-cache-0.prefetcher.pfHitInMSHR            0                       # number of prefetches hitting in a MSHR (Count)
board.cache_hierarchy.l1i-cache-0.prefetcher.pfHitInWB            0                       # number of prefetches hit in the Write Buffer (Count)
board.cache_hierarchy.l1i-cache-0.prefetcher.pfLate            0                       # number of late prefetches (hitting in cache, MSHR or WB) (Count)
board.cache_hierarchy.l1i-cache-0.prefetcher.pfIdentified            0                       # number of prefetch candidates identified (Count)
board.cache_hierarchy.l1i-cache-0.prefetcher.pfBufferHit            0                       # number of redundant prefetches already in prefetch queue (Count)
board.cache_hierarchy.l1i-cache-0.prefetcher.pfInCache            0                       # number of redundant prefetches already in cache/mshr dropped (Count)
board.cache_hierarchy.l1i-cache-0.prefetcher.pfRemovedDemand            0                       # number of prefetches dropped due to a demand for the same address (Count)
board.cache_hierarchy.l1i-cache-0.prefetcher.pfRemovedFull            0                       # number of prefetches dropped due to prefetch queue size (Count)
board.cache_hierarchy.l1i-cache-0.prefetcher.pfSpanPage            0                       # number of prefetches that crossed the page (Count)
board.cache_hierarchy.l1i-cache-0.prefetcher.pfUsefulSpanPage            0                       # number of prefetches that is useful and crossed the page (Count)
board.cache_hierarchy.l1i-cache-0.prefetcher.power_state.pwrStateResidencyTicks::UNDEFINED   1000000000                       # Cumulative time (in ticks) in various power states (Tick)
board.cache_hierarchy.l1i-cache-0.tags.tagsInUse            0                       # Average ticks per tags in use ((Tick/Count))
board.cache_hierarchy.l1i-cache-0.tags.totalRefs            0                       # Total number of references to valid blocks. (Count)
board.cache_hierarchy.l1i-cache-0.tags.sampledRefs            0                       # Sample count of references to valid blocks. (Count)
board.cache_hierarchy.l1i-cache-0.tags.avgRefs          nan                       # Average number of references to valid blocks. ((Count/Count))
board.cache_hierarchy.l1i-cache-0.tags.warmupTick            0                       # The tick when the warmup percentage was hit. (Tick)
board.cache_hierarchy.l1i-cache-0.tags.tagAccesses            0                       # Number of tag accesses (Count)
board.cache_hierarchy.l1i-cache-0.tags.dataAccesses            0                       # Number of data accesses (Count)
board.cache_hierarchy.l1i-cache-0.tags.power_state.pwrStateResidencyTicks::UNDEFINED   1000000000                       # Cumulative time (in ticks) in various power states (Tick)
board.cache_hierarchy.l2-cache-0.demandHits::processor.cores.generator       247350                       # number of demand (read+write) hits (Count)
board.cache_hierarchy.l2-cache-0.demandHits::total       247350                       # number of demand (read+write) hits (Count)
board.cache_hierarchy.l2-cache-0.overallHits::processor.cores.generator       247350                       # number of overall hits (Count)
board.cache_hierarchy.l2-cache-0.overallHits::total       247350                       # number of overall hits (Count)
board.cache_hierarchy.l2-cache-0.demandMisses::processor.cores.generator         4096                       # number of demand (read+write) misses (Count)
board.cache_hierarchy.l2-cache-0.demandMisses::total         4096                       # number of demand (read+write) misses (Count)
board.cache_hierarchy.l2-cache-0.overallMisses::processor.cores.generator         4096                       # number of overall misses (Count)
board.cache_hierarchy.l2-cache-0.overallMisses::total         4096                       # number of overall misses (Count)
board.cache_hierarchy.l2-cache-0.demandMissLatency::processor.cores.generator    217997784                       # number of demand (read+write) miss ticks (Tick)
board.cache_hierarchy.l2-cache-0.demandMissLatency::total    217997784                       # number of demand (read+write) miss ticks (Tick)
board.cache_hierarchy.l2-cache-0.overallMissLatency::processor.cores.generator    217997784                       # number of overall miss ticks (Tick)
board.cache_hierarchy.l2-cache-0.overallMissLatency::total    217997784                       # number of overall miss ticks (Tick)
board.cache_hierarchy.l2-cache-0.demandAccesses::processor.cores.generator       251446                       # number of demand (read+write) accesses (Count)
board.cache_hierarchy.l2-cache-0.demandAccesses::total       251446                       # number of demand (read+write) accesses (Count)
board.cache_hierarchy.l2-cache-0.overallAccesses::processor.cores.generator       251446                       # number of overall (read+write) accesses (Count)
board.cache_hierarchy.l2-cache-0.overallAccesses::total       251446                       # number of overall (read+write) accesses (Count)
board.cache_hierarchy.l2-cache-0.demandMissRate::processor.cores.generator     0.016290                       # miss rate for demand accesses (Ratio)
board.cache_hierarchy.l2-cache-0.demandMissRate::total     0.016290                       # miss rate for demand accesses (Ratio)
board.cache_hierarchy.l2-cache-0.overallMissRate::processor.cores.generator     0.016290                       # miss rate for overall accesses (Ratio)
board.cache_hierarchy.l2-cache-0.overallMissRate::total     0.016290                       # miss rate for overall accesses (Ratio)
board.cache_hierarchy.l2-cache-0.demandAvgMissLatency::processor.cores.generator 53222.115234                       # average overall miss latency in ticks ((Tick/Count))
board.cache_hierarchy.l2-cache-0.demandAvgMissLatency::total 53222.115234                       # average overall miss latency in ticks ((Tick/Count))
board.cache_hierarchy.l2-cache-0.overallAvgMissLatency::processor.cores.generator 53222.115234                       # average overall miss latency ((Tick/Count))
board.cache_hierarchy.l2-cache-0.overallAvgMissLatency::total 53222.115234                       # average overall miss latency ((Tick/Count))
board.cache_hierarchy.l2-cache-0.blockedCycles::no_mshrs            0                       # number of cycles access was blocked (Cycle)
board.cache_hierarchy.l2-cache-0.blockedCycles::no_targets            0                       # number of cycles access was blocked (Cycle)
board.cache_hierarchy.l2-cache-0.blockedCauses::no_mshrs            0                       # number of times access was blocked (Count)
board.cache_hierarchy.l2-cache-0.blockedCauses::no_targets            0                       # number of times access was blocked (Count)
board.cache_hierarchy.l2-cache-0.avgBlocked::no_mshrs          nan                       # average number of cycles each access was blocked ((Cycle/Count))
board.cache_hierarchy.l2-cache-0.avgBlocked::no_targets          nan                       # average number of cycles each access was blocked ((Cycle/Count))
board.cache_hierarchy.l2-cache-0.demandMshrMisses::processor.cores.generator         4096                       # number of demand (read+write) MSHR misses (Count)
board.cache_hierarchy.l2-cache-0.demandMshrMisses::total         4096                       # number of demand (read+write) MSHR misses (Count)
board.cache_hierarchy.l2-cache-0.overallMshrMisses::processor.cores.generator         4096                       # number of overall MSHR misses (Count)
board.cache_hierarchy.l2-cache-0.overallMshrMisses::total         4096                       # number of overall MSHR misses (Count)
board.cache_hierarchy.l2-cache-0.demandMshrMissLatency::processor.cores.generator    216633816                       # number of demand (read+write) MSHR miss ticks (Tick)
board.cache_hierarchy.l2-cache-0.demandMshrMissLatency::total    216633816                       # number of demand (read+write) MSHR miss ticks (Tick)
board.cache_hierarchy.l2-cache-0.overallMshrMissLatency::processor.cores.generator    216633816                       # number of overall MSHR miss ticks (Tick)
board.cache_hierarchy.l2-cache-0.overallMshrMissLatency::total    216633816                       # number of overall MSHR miss ticks (Tick)
board.cache_hierarchy.l2-cache-0.demandMshrMissRate::processor.cores.generator     0.016290                       # mshr miss ratio for demand accesses (Ratio)
board.cache_hierarchy.l2-cache-0.demandMshrMissRate::total     0.016290                       # mshr miss ratio for demand accesses (Ratio)
board.cache_hierarchy.l2-cache-0.overallMshrMissRate::processor.cores.generator     0.016290                       # mshr miss ratio for overall accesses (Ratio)
board.cache_hierarchy.l2-cache-0.overallMshrMissRate::total     0.016290                       # mshr miss ratio for overall accesses (Ratio)
board.cache_hierarchy.l2-cache-0.demandAvgMshrMissLatency::processor.cores.generator 52889.115234                       # average overall mshr miss latency ((Tick/Count))
board.cache_hierarchy.l2-cache-0.demandAvgMshrMissLatency::total 52889.115234                       # average overall mshr miss latency ((Tick/Count))
board.cache_hierarchy.l2-cache-0.overallAvgMshrMissLatency::processor.cores.generator 52889.115234                       # average overall mshr miss latency ((Tick/Count))
board.cache_hierarchy.l2-cache-0.overallAvgMshrMissLatency::total 52889.115234                       # average overall mshr miss latency ((Tick/Count))
board.cache_hierarchy.l2-cache-0.replacements            0                       # number of replacements (Count)
board.cache_hierarchy.l2-cache-0.ReadSharedReq.hits::processor.cores.generator       247350                       # number of ReadSharedReq hits (Count)
board.cache_hierarchy.l2-cache-0.ReadSharedReq.hits::total       247350                       # number of ReadSharedReq hits (Count)
board.cache_hierarchy.l2-cache-0.ReadSharedReq.misses::processor.cores.generator         4096                       # number of ReadSharedReq misses (Count)
board.cache_hierarchy.l2-cache-0.ReadSharedReq.misses::total         4096                       # number of ReadSharedReq misses (Count)
board.cache_hierarchy.l2-cache-0.ReadSharedReq.missLatency::processor.cores.generator    217997784                       # number of ReadSharedReq miss ticks (Tick)
board.cache_hierarchy.l2-cache-0.ReadSharedReq.missLatency::total    217997784                       # number of ReadSharedReq miss ticks (Tick)
board.cache_hierarchy.l2-cache-0.ReadSharedReq.accesses::processor.cores.generator       251446                       # number of ReadSharedReq accesses(hits+misses) (Count)
board.cache_hierarchy.l2-cache-0.ReadSharedReq.accesses::total       251446                       # number of ReadSharedReq accesses(hits+misses) (Count)
board.cache_hierarchy.l2-cache-0.ReadSharedReq.missRate::processor.cores.generator     0.016290                       # miss rate for ReadSharedReq accesses (Ratio)
board.cache_hierarchy.l2-cache-0.ReadSharedReq.missRate::total     0.016290                       # miss rate for ReadSharedReq accesses (Ratio)
board.cache_hierarchy.l2-cache-0.ReadSharedReq.avgMissLatency::processor.cores.generator 53222.115234                       # average ReadSharedReq miss latency ((Tick/Count))
board.cache_hierarchy.l2-cache-0.ReadSharedReq.avgMissLatency::total 53222.115234                       # average ReadSharedReq miss latency ((Tick/Count))
board.cache_hierarchy.l2-cache-0.ReadSharedReq.mshrMisses::processor.cores.generator         4096                       # number of ReadSharedReq MSHR misses (Count)
board.cache_hierarchy.l2-cache-0.ReadSharedReq.mshrMisses::total         4096                       # number of ReadSharedReq MSHR misses (Count)
board.cache_hierarchy.l2-cache-0.ReadSharedReq.mshrMissLatency::processor.cores.generator    216633816                       # number of ReadSharedReq MSHR miss ticks (Tick)
board.cache_hierarchy.l2-cache-0.ReadSharedReq.mshrMissLatency::total    216633816                       # number of ReadSharedReq MSHR miss ticks (Tick)
board.cache_hierarchy.l2-cache-0.ReadSharedReq.mshrMissRate::processor.cores.generator     0.016290                       # mshr miss rate for ReadSharedReq accesses (Ratio)
board.cache_hierarchy.l2-cache-0.ReadSharedReq.mshrMissRate::total     0.016290                       # mshr miss rate for ReadSharedReq accesses (Ratio)
board.cache_hierarchy.l2-cache-0.ReadSharedReq.avgMshrMissLatency::processor.cores.generator 52889.115234                       # average ReadSharedReq mshr miss latency ((Tick/Count))
board.cache_hierarchy.l2-cache-0.ReadSharedReq.avgMshrMissLatency::total 52889.115234                       # average ReadSharedReq mshr miss latency ((Tick/Count))
board.cache_hierarchy.l2-cache-0.power_state.pwrStateResidencyTicks::UNDEFINED   1000000000                       # Cumulative time (in ticks) in various power states (Tick)
board.cache_hierarchy.l2-cache-0.prefetcher.demandMshrMisses         4096                       # demands not covered by prefetchs (Count)
board.cache_hierarchy.l2-cache-0.prefetcher.pfIssued            0                       # number of hwpf issued (Count)
board.cache_hierarchy.l2-cache-0.prefetcher.pfUseful            0                       # number of useful prefetch (Count)
board.cache_hierarchy.l2-cache-0.prefetcher.pfUsefulButMiss            0                       # number of hit on prefetch but cache block is not in an usable state (Count)
board.cache_hierarchy.l2-cache-0.prefetcher.accuracy          nan                       # accuracy of the prefetcher (Count)
board.cache_hierarchy.l2-cache-0.prefetcher.coverage            0                       # coverage brought by this prefetcher (Count)
board.cache_hierarchy.l2-cache-0.prefetcher.pfHitInCache            0                       # number of prefetches hitting in cache (Count)
board.cache_hierarchy.l2-cache-0.prefetcher.pfHitInMSHR            0                       # number of prefetches hitting in a MSHR (Count)
board.cache_hierarchy.l2-cache-0.prefetcher.pfHitInWB            0                       # number of prefetches hit in the Write Buffer (Count)
board.cache_hierarchy.l2-cache-0.prefetcher.pfLate            0                       # number of late prefetches (hitting in cache, MSHR or WB) (Count)
board.cache_hierarchy.l2-cache-0.prefetcher.pfIdentified            0                       # number of prefetch candidates identified (Count)
board.cache_hierarchy.l2-cache-0.prefetcher.pfBufferHit            0                       # number of redundant prefetches already in prefetch queue (Count)
board.cache_hierarchy.l2-cache-0.prefetcher.pfInCache            0                       # number of redundant prefetches already in cache/mshr dropped (Count)
board.cache_hierarchy.l2-cache-0.prefetcher.pfRemovedDemand            0                       # number of prefetches dropped due to a demand for the same address (Count)
board.cache_hierarchy.l2-cache-0.prefetcher.pfRemovedFull            0                       # number of prefetches dropped due to prefetch queue size (Count)
board.cache_hierarchy.l2-cache-0.prefetcher.pfSpanPage            0                       # number of prefetches that crossed the page (Count)
board.cache_hierarchy.l2-cache-0.prefetcher.pfUsefulSpanPage            0                       # number of prefetches that is useful and crossed the page (Count)
board.cache_hierarchy.l2-cache-0.prefetcher.power_state.pwrStateResidencyTicks::UNDEFINED   1000000000                       # Cumulative time (in ticks) in various power states (Tick)
board.cache_hierarchy.l2-cache-0.tags.tagsInUse  4032.059655                       # Average ticks per tags in use ((Tick/Count))
board.cache_hierarchy.l2-cache-0.tags.totalRefs       502635                       # Total number of references to valid blocks. (Count)
board.cache_hierarchy.l2-cache-0.tags.sampledRefs         4096                       # Sample count of references to valid blocks. (Count)
board.cache_hierarchy.l2-cache-0.tags.avgRefs   122.713623                       # Average number of references to valid blocks. ((Count/Count))
board.cache_hierarchy.l2-cache-0.tags.warmupTick        69264                       # The tick when the warmup percentage was hit. (Tick)
board.cache_hierarchy.l2-cache-0.tags.occupancies::processor.cores.generator  4032.059655                       # Average occupied blocks per tick, per requestor ((Count/Tick))
board.cache_hierarchy.l2-cache-0.tags.avgOccs::processor.cores.generator     0.984390                       # Average percentage of cache occupancy ((Ratio/Tick))
board.cache_hierarchy.l2-cache-0.tags.avgOccs::total     0.984390                       # Average percentage of cache occupancy ((Ratio/Tick))
board.cache_hierarchy.l2-cache-0.tags.occupanciesTaskId::1024         4096                       # Occupied blocks per task id (Count)
board.cache_hierarchy.l2-cache-0.tags.ageTaskId_1024::2         4096                       # Occupied blocks per task id, per block age (Count)
board.cache_hierarchy.l2-cache-0.tags.ratioOccsTaskId::1024            1                       # Ratio of occupied blocks and all blocks, per task id (Ratio)
board.cache_hierarchy.l2-cache-0.tags.tagAccesses      8046256                       # Number of tag accesses (Count)
board.cache_hierarchy.l2-cache-0.tags.dataAccesses      8046256                       # Number of data accesses (Count)
board.cache_hierarchy.l2-cache-0.tags.power_state.pwrStateResidencyTicks::UNDEFINED   1000000000                       # Cumulative time (in ticks) in various power states (Tick)
board.cache_hierarchy.l2buses.transDist::ReadResp       251446                       # Transaction distribution (Count)
board.cache_hierarchy.l2buses.transDist::CleanEvict       251189                       # Transaction distribution (Count)
board.cache_hierarchy.l2buses.transDist::ReadSharedReq       251446                       # Transaction distribution (Count)
board.cache_hierarchy.l2buses.pktCount_board.cache_hierarchy.l1d-cache-0.mem_side_port::board.cache_hierarchy.l2-cache-0.cpu_side_port       754081                       # Packet count per connected requestor and responder (Count)
board.cache_hierarchy.l2buses.pktCount::total       754081                       # Packet count per connected requestor and responder (Count)
board.cache_hierarchy.l2buses.pktSize_board.cache_hierarchy.l1d-cache-0.mem_side_port::board.cache_hierarchy.l2-cache-0.cpu_side_port     16092544                       # Cumulative packet size per connected requestor and responder (Byte)
board.cache_hierarchy.l2buses.pktSize::total     16092544                       # Cumulative packet size per connected requestor and responder (Byte)
board.cache_hierarchy.l2buses.snoops                0                       # Total snoops (Count)
board.cache_hierarchy.l2buses.snoopTraffic            0                       # Total snoop traffic (Byte)
board.cache_hierarchy.l2buses.snoopFanout::samples       251446                       # Request fanout histogram (Count)
board.cache_hierarchy.l2buses.snoopFanout::mean            0                       # Request fanout histogram (Count)
board.cache_hierarchy.l2buses.snoopFanout::stdev            0                       # Request fanout histogram (Count)
board.cache_hierarchy.l2buses.snoopFanout::underflows            0      0.00%      0.00% # Request fanout histogram (Count)
board.cache_hierarchy.l2buses.snoopFanout::0       251446    100.00%    100.00% # Request fanout histogram (Count)
board.cache_hierarchy.l2buses.snoopFanout::1            0      0.00%    100.00% # Request fanout histogram (Count)
board.cache_hierarchy.l2buses.snoopFanout::2            0      0.00%    100.00% # Request fanout histogram (Count)
board.cache_hierarchy.l2buses.snoopFanout::overflows            0      0.00%    100.00% # Request fanout histogram (Count)
board.cache_hierarchy.l2buses.snoopFanout::min_value            0                       # Request fanout histogram (Count)
board.cache_hierarchy.l2buses.snoopFanout::max_value            0                       # Request fanout histogram (Count)
board.cache_hierarchy.l2buses.snoopFanout::total       251446                       # Request fanout histogram (Count)
board.cache_hierarchy.l2buses.power_state.pwrStateResidencyTicks::UNDEFINED   1000000000                       # Cumulative time (in ticks) in various power states (Tick)
board.cache_hierarchy.l2buses.reqLayer0.occupancy    167377455                       # Layer occupancy (ticks) (Tick)
board.cache_hierarchy.l2buses.reqLayer0.utilization          0.2                       # Layer utilization (Ratio)
board.cache_hierarchy.l2buses.respLayer1.occupancy    251194554                       # Layer occupancy (ticks) (Tick)
board.cache_hierarchy.l2buses.respLayer1.utilization          0.3                       # Layer utilization (Ratio)
board.cache_hierarchy.l2buses.snoop_filter.totRequests       502635                       # Total number of requests made to the snoop filter. (Count)
board.cache_hierarchy.l2buses.snoop_filter.hitSingleRequests       251189                       # Number of requests hitting in the snoop filter with a single holder of the requested data. (Count)
board.cache_hierarchy.l2buses.snoop_filter.hitMultiRequests            0                       # Number of requests hitting in the snoop filter with multiple (>1) holders of the requested data. (Count)
board.cache_hierarchy.l2buses.snoop_filter.totSnoops            0                       # Total number of snoops made to the snoop filter. (Count)
board.cache_hierarchy.l2buses.snoop_filter.hitSingleSnoops            0                       # Number of snoops hitting in the snoop filter with a single holder of the requested data. (Count)
board.cache_hierarchy.l2buses.snoop_filter.hitMultiSnoops            0                       # Number of snoops hitting in the snoop filter with multiple (>1) holders of the requested data. (Count)
board.cache_hierarchy.membus.transDist::ReadResp         4096                       # Transaction distribution (Count)
board.cache_hierarchy.membus.transDist::ReadSharedReq         4096                       # Transaction distribution (Count)
board.cache_hierarchy.membus.pktCount_board.cache_hierarchy.l2-cache-0.mem_side_port::board.memory.mem_ctrl0.port         4096                       # Packet count per connected requestor and responder (Count)
board.cache_hierarchy.membus.pktCount_board.cache_hierarchy.l2-cache-0.mem_side_port::board.memory.mem_ctrl1.port         4096                       # Packet count per connected requestor and responder (Count)
board.cache_hierarchy.membus.pktCount_board.cache_hierarchy.l2-cache-0.mem_side_port::total         8192                       # Packet count per connected requestor and responder (Count)
board.cache_hierarchy.membus.pktCount::total         8192                       # Packet count per connected requestor and responder (Count)
board.cache_hierarchy.membus.pktSize_board.cache_hierarchy.l2-cache-0.mem_side_port::board.memory.mem_ctrl0.port       131072                       # Cumulative packet size per connected requestor and responder (Byte)
board.cache_hierarchy.membus.pktSize_board.cache_hierarchy.l2-cache-0.mem_side_port::board.memory.mem_ctrl1.port       131072                       # Cumulative packet size per connected requestor and responder (Byte)
board.cache_hierarchy.membus.pktSize_board.cache_hierarchy.l2-cache-0.mem_side_port::total       262144                       # Cumulative packet size per connected requestor and responder (Byte)
board.cache_hierarchy.membus.pktSize::total       262144                       # Cumulative packet size per connected requestor and responder (Byte)
board.cache_hierarchy.membus.snoops                 0                       # Total snoops (Count)
board.cache_hierarchy.membus.snoopTraffic            0                       # Total snoop traffic (Byte)
board.cache_hierarchy.membus.snoopFanout::samples         4096                       # Request fanout histogram (Count)
board.cache_hierarchy.membus.snoopFanout::mean            0                       # Request fanout histogram (Count)
board.cache_hierarchy.membus.snoopFanout::stdev            0                       # Request fanout histogram (Count)
board.cache_hierarchy.membus.snoopFanout::underflows            0      0.00%      0.00% # Request fanout histogram (Count)
board.cache_hierarchy.membus.snoopFanout::0         4096    100.00%    100.00% # Request fanout histogram (Count)
board.cache_hierarchy.membus.snoopFanout::1            0      0.00%    100.00% # Request fanout histogram (Count)
board.cache_hierarchy.membus.snoopFanout::overflows            0      0.00%    100.00% # Request fanout histogram (Count)
board.cache_hierarchy.membus.snoopFanout::min_value            0                       # Request fanout histogram (Count)
board.cache_hierarchy.membus.snoopFanout::max_value            0                       # Request fanout histogram (Count)
board.cache_hierarchy.membus.snoopFanout::total         4096                       # Request fanout histogram (Count)
board.cache_hierarchy.membus.badaddr_responder.power_state.pwrStateResidencyTicks::UNDEFINED   1000000000                       # Cumulative time (in ticks) in various power states (Tick)
board.cache_hierarchy.membus.power_state.pwrStateResidencyTicks::UNDEFINED   1000000000                       # Cumulative time (in ticks) in various power states (Tick)
board.cache_hierarchy.membus.reqLayer0.occupancy       681984                       # Layer occupancy (ticks) (Tick)
board.cache_hierarchy.membus.reqLayer0.utilization          0.0                       # Layer utilization (Ratio)
board.cache_hierarchy.membus.reqLayer1.occupancy       681984                       # Layer occupancy (ticks) (Tick)
board.cache_hierarchy.membus.reqLayer1.utilization          0.0                       # Layer utilization (Ratio)
board.cache_hierarchy.membus.respLayer1.occupancy      3385013                       # Layer occupancy (ticks) (Tick)
board.cache_hierarchy.membus.respLayer1.utilization          0.0                       # Layer utilization (Ratio)
board.cache_hierarchy.membus.snoop_filter.totRequests         4096                       # Total number of requests made to the snoop filter. (Count)
board.cache_hierarchy.membus.snoop_filter.hitSingleRequests            0                       # Number of requests hitting in the snoop filter with a single holder of the requested data. (Count)
board.cache_hierarchy.membus.snoop_filter.hitMultiRequests            0                       # Number of requests hitting in the snoop filter with multiple (>1) holders of the requested data. (Count)
board.cache_hierarchy.membus.snoop_filter.totSnoops            0                       # Total number of snoops made to the snoop filter. (Count)
board.cache_hierarchy.membus.snoop_filter.hitSingleSnoops            0                       # Number of snoops hitting in the snoop filter with a single holder of the requested data. (Count)
board.cache_hierarchy.membus.snoop_filter.hitMultiSnoops            0                       # Number of snoops hitting in the snoop filter with multiple (>1) holders of the requested data. (Count)
board.clk_domain.clock                            333                       # Clock period in ticks (Tick)
board.clk_domain.voltage_domain.voltage             1                       # Voltage in Volts (Volt)
board.memory.mem_ctrl0.avgPriority_processor.cores.generator::samples      2048.00                       # Average QoS priority value for accepted requests (Count)
board.memory.mem_ctrl0.priorityMinLatency 0.000000017492                       # per QoS priority minimum request to response latency (Second)
board.memory.mem_ctrl0.priorityMaxLatency 0.000000754446                       # per QoS priority maximum request to response latency (Second)
board.memory.mem_ctrl0.numReadWriteTurnArounds            0                       # Number of turnarounds from READ to WRITE (Count)
board.memory.mem_ctrl0.numWriteReadTurnArounds            0                       # Number of turnarounds from WRITE to READ (Count)
board.memory.mem_ctrl0.numStayReadState          4350                       # Number of times bus staying in READ state (Count)
board.memory.mem_ctrl0.numStayWriteState            0                       # Number of times bus staying in WRITE state (Count)
board.memory.mem_ctrl0.readReqs                  2048                       # Number of read requests accepted (Count)
board.memory.mem_ctrl0.writeReqs                    0                       # Number of write requests accepted (Count)
board.memory.mem_ctrl0.readBursts                2048                       # Number of controller read bursts, including those serviced by the write queue (Count)
board.memory.mem_ctrl0.writeBursts                  0                       # Number of controller write bursts, including those merged in the write queue (Count)
board.memory.mem_ctrl0.servicedByWrQ                0                       # Number of controller read bursts serviced by the write queue (Count)
board.memory.mem_ctrl0.mergedWrBursts               0                       # Number of controller write bursts merged with an existing one (Count)
board.memory.mem_ctrl0.neitherReadNorWriteReqs            0                       # Number of requests that are neither read nor write (Count)
board.memory.mem_ctrl0.avgRdQLen                 1.06                       # Average read queue length when enqueuing ((Count/Tick))
board.memory.mem_ctrl0.avgWrQLen                 0.00                       # Average write queue length when enqueuing ((Count/Tick))
board.memory.mem_ctrl0.numRdRetry                   0                       # Number of times read queue was full causing retry (Count)
board.memory.mem_ctrl0.numWrRetry                   0                       # Number of times write queue was full causing retry (Count)
board.memory.mem_ctrl0.readPktSize::0               0                       # Read request sizes (log2) (Count)
board.memory.mem_ctrl0.readPktSize::1               0                       # Read request sizes (log2) (Count)
board.memory.mem_ctrl0.readPktSize::2               0                       # Read request sizes (log2) (Count)
board.memory.mem_ctrl0.readPktSize::3               0                       # Read request sizes (log2) (Count)
board.memory.mem_ctrl0.readPktSize::4               0                       # Read request sizes (log2) (Count)
board.memory.mem_ctrl0.readPktSize::5               0                       # Read request sizes (log2) (Count)
board.memory.mem_ctrl0.readPktSize::6            2048                       # Read request sizes (log2) (Count)
board.memory.mem_ctrl0.writePktSize::0              0                       # Write request sizes (log2) (Count)
board.memory.mem_ctrl0.writePktSize::1              0                       # Write request sizes (log2) (Count)
board.memory.mem_ctrl0.writePktSize::2              0                       # Write request sizes (log2) (Count)
board.memory.mem_ctrl0.writePktSize::3              0                       # Write request sizes (log2) (Count)
board.memory.mem_ctrl0.writePktSize::4              0                       # Write request sizes (log2) (Count)
board.memory.mem_ctrl0.writePktSize::5              0                       # Write request sizes (log2) (Count)
board.memory.mem_ctrl0.writePktSize::6              0                       # Write request sizes (log2) (Count)
board.memory.mem_ctrl0.rdQLenPdf::0               707                       # What read queue length does an incoming req see (Count)
board.memory.mem_ctrl0.rdQLenPdf::1               645                       # What read queue length does an incoming req see (Count)
board.memory.mem_ctrl0.rdQLenPdf::2               429                       # What read queue length does an incoming req see (Count)
board.memory.mem_ctrl0.rdQLenPdf::3               166                       # What read queue length does an incoming req see (Count)
board.memory.mem_ctrl0.rdQLenPdf::4                56                       # What read queue length does an incoming req see (Count)
board.memory.mem_ctrl0.rdQLenPdf::5                26                       # What read queue length does an incoming req see (Count)
board.memory.mem_ctrl0.rdQLenPdf::6                10                       # What read queue length does an incoming req see (Count)
board.memory.mem_ctrl0.rdQLenPdf::7                 5                       # What read queue length does an incoming req see (Count)
board.memory.mem_ctrl0.rdQLenPdf::8                 3                       # What read queue length does an incoming req see (Count)
board.memory.mem_ctrl0.rdQLenPdf::9                 1                       # What read queue length does an incoming req see (Count)
board.memory.mem_ctrl0.rdQLenPdf::10                0                       # What read queue length does an incoming req see (Count)
board.memory.mem_ctrl0.rdQLenPdf::11                0                       # What read queue length does an incoming req see (Count)
board.memory.mem_ctrl0.rdQLenPdf::12                0                       # What read queue length does an incoming req see (Count)
board.memory.mem_ctrl0.rdQLenPdf::13                0                       # What read queue length does an incoming req see (Count)
board.memory.mem_ctrl0.rdQLenPdf::14                0                       # What read queue length does an incoming req see (Count)
board.memory.mem_ctrl0.rdQLenPdf::15                0                       # What read queue length does an incoming req see (Count)
board.memory.mem_ctrl0.rdQLenPdf::16                0                       # What read queue length does an incoming req see (Count)
board.memory.mem_ctrl0.rdQLenPdf::17                0                       # What read queue length does an incoming req see (Count)
board.memory.mem_ctrl0.rdQLenPdf::18                0                       # What read queue length does an incoming req see (Count)
board.memory.mem_ctrl0.rdQLenPdf::19                0                       # What read queue length does an incoming req see (Count)
board.memory.mem_ctrl0.rdQLenPdf::20                0                       # What read queue length does an incoming req see (Count)
board.memory.mem_ctrl0.rdQLenPdf::21                0                       # What read queue length does an incoming req see (Count)
board.memory.mem_ctrl0.rdQLenPdf::22                0                       # What read queue length does an incoming req see (Count)
board.memory.mem_ctrl0.rdQLenPdf::23                0                       # What read queue length does an incoming req see (Count)
board.memory.mem_ctrl0.rdQLenPdf::24                0                       # What read queue length does an incoming req see (Count)
board.memory.mem_ctrl0.rdQLenPdf::25                0                       # What read queue length does an incoming req see (Count)
board.memory.mem_ctrl0.rdQLenPdf::26                0                       # What read queue length does an incoming req see (Count)
board.memory.mem_ctrl0.rdQLenPdf::27                0                       # What read queue length does an incoming req see (Count)
board.memory.mem_ctrl0.rdQLenPdf::28                0                       # What read queue length does an incoming req see (Count)
board.memory.mem_ctrl0.rdQLenPdf::29                0                       # What read queue length does an incoming req see (Count)
board.memory.mem_ctrl0.rdQLenPdf::30                0                       # What read queue length does an incoming req see (Count)
board.memory.mem_ctrl0.rdQLenPdf::31                0                       # What read queue length does an incoming req see (Count)
board.memory.mem_ctrl0.rdQLenPdf::32                0                       # What read queue length does an incoming req see (Count)
board.memory.mem_ctrl0.rdQLenPdf::33                0                       # What read queue length does an incoming req see (Count)
board.memory.mem_ctrl0.rdQLenPdf::34                0                       # What read queue length does an incoming req see (Count)
board.memory.mem_ctrl0.rdQLenPdf::35                0                       # What read queue length does an incoming req see (Count)
board.memory.mem_ctrl0.rdQLenPdf::36                0                       # What read queue length does an incoming req see (Count)
board.memory.mem_ctrl0.rdQLenPdf::37                0                       # What read queue length does an incoming req see (Count)
board.memory.mem_ctrl0.rdQLenPdf::38                0                       # What read queue length does an incoming req see (Count)
board.memory.mem_ctrl0.rdQLenPdf::39                0                       # What read queue length does an incoming req see (Count)
board.memory.mem_ctrl0.rdQLenPdf::40                0                       # What read queue length does an incoming req see (Count)
board.memory.mem_ctrl0.rdQLenPdf::41                0                       # What read queue length does an incoming req see (Count)
board.memory.mem_ctrl0.rdQLenPdf::42                0                       # What read queue length does an incoming req see (Count)
board.memory.mem_ctrl0.rdQLenPdf::43                0                       # What read queue length does an incoming req see (Count)
board.memory.mem_ctrl0.rdQLenPdf::44                0                       # What read queue length does an incoming req see (Count)
board.memory.mem_ctrl0.rdQLenPdf::45                0                       # What read queue length does an incoming req see (Count)
board.memory.mem_ctrl0.rdQLenPdf::46                0                       # What read queue length does an incoming req see (Count)
board.memory.mem_ctrl0.rdQLenPdf::47                0                       # What read queue length does an incoming req see (Count)
board.memory.mem_ctrl0.rdQLenPdf::48                0                       # What read queue length does an incoming req see (Count)
board.memory.mem_ctrl0.rdQLenPdf::49                0                       # What read queue length does an incoming req see (Count)
board.memory.mem_ctrl0.rdQLenPdf::50                0                       # What read queue length does an incoming req see (Count)
board.memory.mem_ctrl0.rdQLenPdf::51                0                       # What read queue length does an incoming req see (Count)
board.memory.mem_ctrl0.rdQLenPdf::52                0                       # What read queue length does an incoming req see (Count)
board.memory.mem_ctrl0.rdQLenPdf::53                0                       # What read queue length does an incoming req see (Count)
board.memory.mem_ctrl0.rdQLenPdf::54                0                       # What read queue length does an incoming req see (Count)
board.memory.mem_ctrl0.rdQLenPdf::55                0                       # What read queue length does an incoming req see (Count)
board.memory.mem_ctrl0.rdQLenPdf::56                0                       # What read queue length does an incoming req see (Count)
board.memory.mem_ctrl0.rdQLenPdf::57                0                       # What read queue length does an incoming req see (Count)
board.memory.mem_ctrl0.rdQLenPdf::58                0                       # What read queue length does an incoming req see (Count)
board.memory.mem_ctrl0.rdQLenPdf::59                0                       # What read queue length does an incoming req see (Count)
board.memory.mem_ctrl0.rdQLenPdf::60                0                       # What read queue length does an incoming req see (Count)
board.memory.mem_ctrl0.rdQLenPdf::61                0                       # What read queue length does an incoming req see (Count)
board.memory.mem_ctrl0.rdQLenPdf::62                0                       # What read queue length does an incoming req see (Count)
board.memory.mem_ctrl0.rdQLenPdf::63                0                       # What read queue length does an incoming req see (Count)
board.memory.mem_ctrl0.wrQLenPdf::0                 0                       # What write queue length does an incoming req see (Count)
board.memory.mem_ctrl0.wrQLenPdf::1                 0                       # What write queue length does an incoming req see (Count)
board.memory.mem_ctrl0.wrQLenPdf::2                 0                       # What write queue length does an incoming req see (Count)
board.memory.mem_ctrl0.wrQLenPdf::3                 0                       # What write queue length does an incoming req see (Count)
board.memory.mem_ctrl0.wrQLenPdf::4                 0                       # What write queue length does an incoming req see (Count)
board.memory.mem_ctrl0.wrQLenPdf::5                 0                       # What write queue length does an incoming req see (Count)
board.memory.mem_ctrl0.wrQLenPdf::6                 0                       # What write queue length does an incoming req see (Count)
board.memory.mem_ctrl0.wrQLenPdf::7                 0                       # What write queue length does an incoming req see (Count)
board.memory.mem_ctrl0.wrQLenPdf::8                 0                       # What write queue length does an incoming req see (Count)
board.memory.mem_ctrl0.wrQLenPdf::9                 0                       # What write queue length does an incoming req see (Count)
board.memory.mem_ctrl0.wrQLenPdf::10                0                       # What write queue length does an incoming req see (Count)
board.memory.mem_ctrl0.wrQLenPdf::11                0                       # What write queue length does an incoming req see (Count)
board.memory.mem_ctrl0.wrQLenPdf::12                0                       # What write queue length does an incoming req see (Count)
board.memory.mem_ctrl0.wrQLenPdf::13                0                       # What write queue length does an incoming req see (Count)
board.memory.mem_ctrl0.wrQLenPdf::14                0                       # What write queue length does an incoming req see (Count)
board.memory.mem_ctrl0.wrQLenPdf::15                0                       # What write queue length does an incoming req see (Count)
board.memory.mem_ctrl0.wrQLenPdf::16                0                       # What write queue length does an incoming req see (Count)
board.memory.mem_ctrl0.wrQLenPdf::17                0                       # What write queue length does an incoming req see (Count)
board.memory.mem_ctrl0.wrQLenPdf::18                0                       # What write queue length does an incoming req see (Count)
board.memory.mem_ctrl0.wrQLenPdf::19                0                       # What write queue length does an incoming req see (Count)
board.memory.mem_ctrl0.wrQLenPdf::20                0                       # What write queue length does an incoming req see (Count)
board.memory.mem_ctrl0.wrQLenPdf::21                0                       # What write queue length does an incoming req see (Count)
board.memory.mem_ctrl0.wrQLenPdf::22                0                       # What write queue length does an incoming req see (Count)
board.memory.mem_ctrl0.wrQLenPdf::23                0                       # What write queue length does an incoming req see (Count)
board.memory.mem_ctrl0.wrQLenPdf::24                0                       # What write queue length does an incoming req see (Count)
board.memory.mem_ctrl0.wrQLenPdf::25                0                       # What write queue length does an incoming req see (Count)
board.memory.mem_ctrl0.wrQLenPdf::26                0                       # What write queue length does an incoming req see (Count)
board.memory.mem_ctrl0.wrQLenPdf::27                0                       # What write queue length does an incoming req see (Count)
board.memory.mem_ctrl0.wrQLenPdf::28                0                       # What write queue length does an incoming req see (Count)
board.memory.mem_ctrl0.wrQLenPdf::29                0                       # What write queue length does an incoming req see (Count)
board.memory.mem_ctrl0.wrQLenPdf::30                0                       # What write queue length does an incoming req see (Count)
board.memory.mem_ctrl0.wrQLenPdf::31                0                       # What write queue length does an incoming req see (Count)
board.memory.mem_ctrl0.wrQLenPdf::32                0                       # What write queue length does an incoming req see (Count)
board.memory.mem_ctrl0.wrQLenPdf::33                0                       # What write queue length does an incoming req see (Count)
board.memory.mem_ctrl0.wrQLenPdf::34                0                       # What write queue length does an incoming req see (Count)
board.memory.mem_ctrl0.wrQLenPdf::35                0                       # What write queue length does an incoming req see (Count)
board.memory.mem_ctrl0.wrQLenPdf::36                0                       # What write queue length does an incoming req see (Count)
board.memory.mem_ctrl0.wrQLenPdf::37                0                       # What write queue length does an incoming req see (Count)
board.memory.mem_ctrl0.wrQLenPdf::38                0                       # What write queue length does an incoming req see (Count)
board.memory.mem_ctrl0.wrQLenPdf::39                0                       # What write queue length does an incoming req see (Count)
board.memory.mem_ctrl0.wrQLenPdf::40                0                       # What write queue length does an incoming req see (Count)
board.memory.mem_ctrl0.wrQLenPdf::41                0                       # What write queue length does an incoming req see (Count)
board.memory.mem_ctrl0.wrQLenPdf::42                0                       # What write queue length does an incoming req see (Count)
board.memory.mem_ctrl0.wrQLenPdf::43                0                       # What write queue length does an incoming req see (Count)
board.memory.mem_ctrl0.wrQLenPdf::44                0                       # What write queue length does an incoming req see (Count)
board.memory.mem_ctrl0.wrQLenPdf::45                0                       # What write queue length does an incoming req see (Count)
board.memory.mem_ctrl0.wrQLenPdf::46                0                       # What write queue length does an incoming req see (Count)
board.memory.mem_ctrl0.wrQLenPdf::47                0                       # What write queue length does an incoming req see (Count)
board.memory.mem_ctrl0.wrQLenPdf::48                0                       # What write queue length does an incoming req see (Count)
board.memory.mem_ctrl0.wrQLenPdf::49                0                       # What write queue length does an incoming req see (Count)
board.memory.mem_ctrl0.wrQLenPdf::50                0                       # What write queue length does an incoming req see (Count)
board.memory.mem_ctrl0.wrQLenPdf::51                0                       # What write queue length does an incoming req see (Count)
board.memory.mem_ctrl0.wrQLenPdf::52                0                       # What write queue length does an incoming req see (Count)
board.memory.mem_ctrl0.wrQLenPdf::53                0                       # What write queue length does an incoming req see (Count)
board.memory.mem_ctrl0.wrQLenPdf::54                0                       # What write queue length does an incoming req see (Count)
board.memory.mem_ctrl0.wrQLenPdf::55                0                       # What write queue length does an incoming req see (Count)
board.memory.mem_ctrl0.wrQLenPdf::56                0                       # What write queue length does an incoming req see (Count)
board.memory.mem_ctrl0.wrQLenPdf::57                0                       # What write queue length does an incoming req see (Count)
board.memory.mem_ctrl0.wrQLenPdf::58                0                       # What write queue length does an incoming req see (Count)
board.memory.mem_ctrl0.wrQLenPdf::59                0                       # What write queue length does an incoming req see (Count)
board.memory.mem_ctrl0.wrQLenPdf::60                0                       # What write queue length does an incoming req see (Count)
board.memory.mem_ctrl0.wrQLenPdf::61                0                       # What write queue length does an incoming req see (Count)
board.memory.mem_ctrl0.wrQLenPdf::62                0                       # What write queue length does an incoming req see (Count)
board.memory.mem_ctrl0.wrQLenPdf::63                0                       # What write queue length does an incoming req see (Count)
board.memory.mem_ctrl0.wrQLenPdf::64                0                       # What write queue length does an incoming req see (Count)
board.memory.mem_ctrl0.wrQLenPdf::65                0                       # What write queue length does an incoming req see (Count)
board.memory.mem_ctrl0.wrQLenPdf::66                0                       # What write queue length does an incoming req see (Count)
board.memory.mem_ctrl0.wrQLenPdf::67                0                       # What write queue length does an incoming req see (Count)
board.memory.mem_ctrl0.wrQLenPdf::68                0                       # What write queue length does an incoming req see (Count)
board.memory.mem_ctrl0.wrQLenPdf::69                0                       # What write queue length does an incoming req see (Count)
board.memory.mem_ctrl0.wrQLenPdf::70                0                       # What write queue length does an incoming req see (Count)
board.memory.mem_ctrl0.wrQLenPdf::71                0                       # What write queue length does an incoming req see (Count)
board.memory.mem_ctrl0.wrQLenPdf::72                0                       # What write queue length does an incoming req see (Count)
board.memory.mem_ctrl0.wrQLenPdf::73                0                       # What write queue length does an incoming req see (Count)
board.memory.mem_ctrl0.wrQLenPdf::74                0                       # What write queue length does an incoming req see (Count)
board.memory.mem_ctrl0.wrQLenPdf::75                0                       # What write queue length does an incoming req see (Count)
board.memory.mem_ctrl0.wrQLenPdf::76                0                       # What write queue length does an incoming req see (Count)
board.memory.mem_ctrl0.wrQLenPdf::77                0                       # What write queue length does an incoming req see (Count)
board.memory.mem_ctrl0.wrQLenPdf::78                0                       # What write queue length does an incoming req see (Count)
board.memory.mem_ctrl0.wrQLenPdf::79                0                       # What write queue length does an incoming req see (Count)
board.memory.mem_ctrl0.wrQLenPdf::80                0                       # What write queue length does an incoming req see (Count)
board.memory.mem_ctrl0.wrQLenPdf::81                0                       # What write queue length does an incoming req see (Count)
board.memory.mem_ctrl0.wrQLenPdf::82                0                       # What write queue length does an incoming req see (Count)
board.memory.mem_ctrl0.wrQLenPdf::83                0                       # What write queue length does an incoming req see (Count)
board.memory.mem_ctrl0.wrQLenPdf::84                0                       # What write queue length does an incoming req see (Count)
board.memory.mem_ctrl0.wrQLenPdf::85                0                       # What write queue length does an incoming req see (Count)
board.memory.mem_ctrl0.wrQLenPdf::86                0                       # What write queue length does an incoming req see (Count)
board.memory.mem_ctrl0.wrQLenPdf::87                0                       # What write queue length does an incoming req see (Count)
board.memory.mem_ctrl0.wrQLenPdf::88                0                       # What write queue length does an incoming req see (Count)
board.memory.mem_ctrl0.wrQLenPdf::89                0                       # What write queue length does an incoming req see (Count)
board.memory.mem_ctrl0.wrQLenPdf::90                0                       # What write queue length does an incoming req see (Count)
board.memory.mem_ctrl0.wrQLenPdf::91                0                       # What write queue length does an incoming req see (Count)
board.memory.mem_ctrl0.wrQLenPdf::92                0                       # What write queue length does an incoming req see (Count)
board.memory.mem_ctrl0.wrQLenPdf::93                0                       # What write queue length does an incoming req see (Count)
board.memory.mem_ctrl0.wrQLenPdf::94                0                       # What write queue length does an incoming req see (Count)
board.memory.mem_ctrl0.wrQLenPdf::95                0                       # What write queue length does an incoming req see (Count)
board.memory.mem_ctrl0.wrQLenPdf::96                0                       # What write queue length does an incoming req see (Count)
board.memory.mem_ctrl0.wrQLenPdf::97                0                       # What write queue length does an incoming req see (Count)
board.memory.mem_ctrl0.wrQLenPdf::98                0                       # What write queue length does an incoming req see (Count)
board.memory.mem_ctrl0.wrQLenPdf::99                0                       # What write queue length does an incoming req see (Count)
board.memory.mem_ctrl0.wrQLenPdf::100               0                       # What write queue length does an incoming req see (Count)
board.memory.mem_ctrl0.wrQLenPdf::101               0                       # What write queue length does an incoming req see (Count)
board.memory.mem_ctrl0.wrQLenPdf::102               0                       # What write queue length does an incoming req see (Count)
board.memory.mem_ctrl0.wrQLenPdf::103               0                       # What write queue length does an incoming req see (Count)
board.memory.mem_ctrl0.wrQLenPdf::104               0                       # What write queue length does an incoming req see (Count)
board.memory.mem_ctrl0.wrQLenPdf::105               0                       # What write queue length does an incoming req see (Count)
board.memory.mem_ctrl0.wrQLenPdf::106               0                       # What write queue length does an incoming req see (Count)
board.memory.mem_ctrl0.wrQLenPdf::107               0                       # What write queue length does an incoming req see (Count)
board.memory.mem_ctrl0.wrQLenPdf::108               0                       # What write queue length does an incoming req see (Count)
board.memory.mem_ctrl0.wrQLenPdf::109               0                       # What write queue length does an incoming req see (Count)
board.memory.mem_ctrl0.wrQLenPdf::110               0                       # What write queue length does an incoming req see (Count)
board.memory.mem_ctrl0.wrQLenPdf::111               0                       # What write queue length does an incoming req see (Count)
board.memory.mem_ctrl0.wrQLenPdf::112               0                       # What write queue length does an incoming req see (Count)
board.memory.mem_ctrl0.wrQLenPdf::113               0                       # What write queue length does an incoming req see (Count)
board.memory.mem_ctrl0.wrQLenPdf::114               0                       # What write queue length does an incoming req see (Count)
board.memory.mem_ctrl0.wrQLenPdf::115               0                       # What write queue length does an incoming req see (Count)
board.memory.mem_ctrl0.wrQLenPdf::116               0                       # What write queue length does an incoming req see (Count)
board.memory.mem_ctrl0.wrQLenPdf::117               0                       # What write queue length does an incoming req see (Count)
board.memory.mem_ctrl0.wrQLenPdf::118               0                       # What write queue length does an incoming req see (Count)
board.memory.mem_ctrl0.wrQLenPdf::119               0                       # What write queue length does an incoming req see (Count)
board.memory.mem_ctrl0.wrQLenPdf::120               0                       # What write queue length does an incoming req see (Count)
board.memory.mem_ctrl0.wrQLenPdf::121               0                       # What write queue length does an incoming req see (Count)
board.memory.mem_ctrl0.wrQLenPdf::122               0                       # What write queue length does an incoming req see (Count)
board.memory.mem_ctrl0.wrQLenPdf::123               0                       # What write queue length does an incoming req see (Count)
board.memory.mem_ctrl0.wrQLenPdf::124               0                       # What write queue length does an incoming req see (Count)
board.memory.mem_ctrl0.wrQLenPdf::125               0                       # What write queue length does an incoming req see (Count)
board.memory.mem_ctrl0.wrQLenPdf::126               0                       # What write queue length does an incoming req see (Count)
board.memory.mem_ctrl0.wrQLenPdf::127               0                       # What write queue length does an incoming req see (Count)
board.memory.mem_ctrl0.bytesReadWrQ                 0                       # Total number of bytes read from write queue (Byte)
board.memory.mem_ctrl0.bytesReadSys            131072                       # Total read bytes from the system interface side (Byte)
board.memory.mem_ctrl0.bytesWrittenSys              0                       # Total written bytes from the system interface side (Byte)
board.memory.mem_ctrl0.avgRdBWSys        131072000.00000000                       # Average system read bandwidth in Byte/s ((Byte/Second))
board.memory.mem_ctrl0.avgWrBWSys          0.00000000                       # Average system write bandwidth in Byte/s ((Byte/Second))
board.memory.mem_ctrl0.totGap               159792048                       # Total gap between requests (Tick)
board.memory.mem_ctrl0.avgGap                78023.46                       # Average gap between requests ((Tick/Count))
board.memory.mem_ctrl0.requestorReadBytes::processor.cores.generator       131072                       # Per-requestor bytes read from memory (Byte)
board.memory.mem_ctrl0.requestorReadRate::processor.cores.generator 131072000.000000000000                       # Per-requestor bytes read from memory rate ((Byte/Second))
board.memory.mem_ctrl0.requestorReadAccesses::processor.cores.generator         2048                       # Per-requestor read serviced memory accesses (Count)
board.memory.mem_ctrl0.requestorReadTotalLat::processor.cores.generator     54889618                       # Per-requestor read total memory access latency (Tick)
board.memory.mem_ctrl0.requestorReadAvgLat::processor.cores.generator     26801.57                       # Per-requestor read average memory access latency ((Tick/Count))
board.memory.mem_ctrl0.dram.bytesRead::processor.cores.generator       131072                       # Number of bytes read from this memory (Byte)
board.memory.mem_ctrl0.dram.bytesRead::total       131072                       # Number of bytes read from this memory (Byte)
board.memory.mem_ctrl0.dram.numReads::processor.cores.generator         2048                       # Number of read requests responded to by this memory (Count)
board.memory.mem_ctrl0.dram.numReads::total         2048                       # Number of read requests responded to by this memory (Count)
board.memory.mem_ctrl0.dram.bwRead::processor.cores.generator    131072000                       # Total read bandwidth from this memory ((Byte/Second))
board.memory.mem_ctrl0.dram.bwRead::total    131072000                       # Total read bandwidth from this memory ((Byte/Second))
board.memory.mem_ctrl0.dram.bwTotal::processor.cores.generator    131072000                       # Total bandwidth to/from this memory ((Byte/Second))
board.memory.mem_ctrl0.dram.bwTotal::total    131072000                       # Total bandwidth to/from this memory ((Byte/Second))
board.memory.mem_ctrl0.dram.readBursts           2048                       # Number of DRAM read bursts (Count)
board.memory.mem_ctrl0.dram.writeBursts             0                       # Number of DRAM write bursts (Count)
board.memory.mem_ctrl0.dram.perBankRdBursts::0          128                       # Per bank write bursts (Count)
board.memory.mem_ctrl0.dram.perBankRdBursts::1          128                       # Per bank write bursts (Count)
board.memory.mem_ctrl0.dram.perBankRdBursts::2          128                       # Per bank write bursts (Count)
[...]
board.memory.mem_ctrl1.dram.numReads::total         2048                       # Number of read requests responded to by this memory (Count)
board.memory.mem_ctrl1.dram.bwRead::processor.cores.generator    131072000                       # Total read bandwidth from this memory ((Byte/Second))
board.memory.mem_ctrl1.dram.bwRead::total    131072000                       # Total read bandwidth from this memory ((Byte/Second))
board.memory.mem_ctrl1.dram.bwTotal::processor.cores.generator    131072000                       # Total bandwidth to/from this memory ((Byte/Second))
board.memory.mem_ctrl1.dram.bwTotal::total    131072000                       # Total bandwidth to/from this memory ((Byte/Second))
board.memory.mem_ctrl1.dram.readBursts           2048                       # Number of DRAM read bursts (Count)
board.memory.mem_ctrl1.dram.writeBursts             0                       # Number of DRAM write bursts (Count)
board.memory.mem_ctrl1.dram.perBankRdBursts::0          128                       # Per bank write bursts (Count)
board.memory.mem_ctrl1.dram.perBankRdBursts::1          128                       # Per bank write bursts (Count)
board.memory.mem_ctrl1.dram.perBankRdBursts::2          128                       # Per bank write bursts (Count)
board.memory.mem_ctrl1.dram.perBankRdBursts::3          128                       # Per bank write bursts (Count)
board.memory.mem_ctrl1.dram.perBankRdBursts::4          128                       # Per bank write bursts (Count)
board.memory.mem_ctrl1.dram.perBankRdBursts::5          128                       # Per bank write bursts (Count)
board.memory.mem_ctrl1.dram.perBankRdBursts::6          128                       # Per bank write bursts (Count)
board.memory.mem_ctrl1.dram.perBankRdBursts::7          128                       # Per bank write bursts (Count)
board.memory.mem_ctrl1.dram.perBankRdBursts::8          128                       # Per bank write bursts (Count)
board.memory.mem_ctrl1.dram.perBankRdBursts::9          128                       # Per bank write bursts (Count)
board.memory.mem_ctrl1.dram.perBankRdBursts::10          128                       # Per bank write bursts (Count)
board.memory.mem_ctrl1.dram.perBankRdBursts::11          128                       # Per bank write bursts (Count)
board.memory.mem_ctrl1.dram.perBankRdBursts::12          128                       # Per bank write bursts (Count)
board.memory.mem_ctrl1.dram.perBankRdBursts::13          128                       # Per bank write bursts (Count)
board.memory.mem_ctrl1.dram.perBankRdBursts::14          128                       # Per bank write bursts (Count)
board.memory.mem_ctrl1.dram.perBankRdBursts::15          128                       # Per bank write bursts (Count)
board.memory.mem_ctrl1.dram.perBankRdBursts::16            0                       # Per bank write bursts (Count)
board.memory.mem_ctrl1.dram.perBankRdBursts::17            0                       # Per bank write bursts (Count)
board.memory.mem_ctrl1.dram.perBankRdBursts::18            0                       # Per bank write bursts (Count)
board.memory.mem_ctrl1.dram.perBankRdBursts::19            0                       # Per bank write bursts (Count)
board.memory.mem_ctrl1.dram.perBankRdBursts::20            0                       # Per bank write bursts (Count)
board.memory.mem_ctrl1.dram.perBankRdBursts::21            0                       # Per bank write bursts (Count)
board.memory.mem_ctrl1.dram.perBankRdBursts::22            0                       # Per bank write bursts (Count)
board.memory.mem_ctrl1.dram.perBankRdBursts::23            0                       # Per bank write bursts (Count)
board.memory.mem_ctrl1.dram.perBankRdBursts::24            0                       # Per bank write bursts (Count)
board.memory.mem_ctrl1.dram.perBankRdBursts::25            0                       # Per bank write bursts (Count)
board.memory.mem_ctrl1.dram.perBankRdBursts::26            0                       # Per bank write bursts (Count)
board.memory.mem_ctrl1.dram.perBankRdBursts::27            0                       # Per bank write bursts (Count)
board.memory.mem_ctrl1.dram.perBankRdBursts::28            0                       # Per bank write bursts (Count)
board.memory.mem_ctrl1.dram.perBankRdBursts::29            0                       # Per bank write bursts (Count)
board.memory.mem_ctrl1.dram.perBankRdBursts::30            0                       # Per bank write bursts (Count)
board.memory.mem_ctrl1.dram.perBankRdBursts::31            0                       # Per bank write bursts (Count)
board.memory.mem_ctrl1.dram.perBankWrBursts::0            0                       # Per bank write bursts (Count)
board.memory.mem_ctrl1.dram.perBankWrBursts::1            0                       # Per bank write bursts (Count)
board.memory.mem_ctrl1.dram.perBankWrBursts::2            0                       # Per bank write bursts (Count)
board.memory.mem_ctrl1.dram.perBankWrBursts::3            0                       # Per bank write bursts (Count)
board.memory.mem_ctrl1.dram.perBankWrBursts::4            0                       # Per bank write bursts (Count)
board.memory.mem_ctrl1.dram.perBankWrBursts::5            0                       # Per bank write bursts (Count)
board.memory.mem_ctrl1.dram.perBankWrBursts::6            0                       # Per bank write bursts (Count)
board.memory.mem_ctrl1.dram.perBankWrBursts::7            0                       # Per bank write bursts (Count)
board.memory.mem_ctrl1.dram.perBankWrBursts::8            0                       # Per bank write bursts (Count)
board.memory.mem_ctrl1.dram.perBankWrBursts::9            0                       # Per bank write bursts (Count)
board.memory.mem_ctrl1.dram.perBankWrBursts::10            0                       # Per bank write bursts (Count)
board.memory.mem_ctrl1.dram.perBankWrBursts::11            0                       # Per bank write bursts (Count)
board.memory.mem_ctrl1.dram.perBankWrBursts::12            0                       # Per bank write bursts (Count)
board.memory.mem_ctrl1.dram.perBankWrBursts::13            0                       # Per bank write bursts (Count)
board.memory.mem_ctrl1.dram.perBankWrBursts::14            0                       # Per bank write bursts (Count)
board.memory.mem_ctrl1.dram.perBankWrBursts::15            0                       # Per bank write bursts (Count)
board.memory.mem_ctrl1.dram.perBankWrBursts::16            0                       # Per bank write bursts (Count)
board.memory.mem_ctrl1.dram.perBankWrBursts::17            0                       # Per bank write bursts (Count)
board.memory.mem_ctrl1.dram.perBankWrBursts::18            0                       # Per bank write bursts (Count)
board.memory.mem_ctrl1.dram.perBankWrBursts::19            0                       # Per bank write bursts (Count)
board.memory.mem_ctrl1.dram.perBankWrBursts::20            0                       # Per bank write bursts (Count)
board.memory.mem_ctrl1.dram.perBankWrBursts::21            0                       # Per bank write bursts (Count)
board.memory.mem_ctrl1.dram.perBankWrBursts::22            0                       # Per bank write bursts (Count)
board.memory.mem_ctrl1.dram.perBankWrBursts::23            0                       # Per bank write bursts (Count)
board.memory.mem_ctrl1.dram.perBankWrBursts::24            0                       # Per bank write bursts (Count)
board.memory.mem_ctrl1.dram.perBankWrBursts::25            0                       # Per bank write bursts (Count)
board.memory.mem_ctrl1.dram.perBankWrBursts::26            0                       # Per bank write bursts (Count)
board.memory.mem_ctrl1.dram.perBankWrBursts::27            0                       # Per bank write bursts (Count)
board.memory.mem_ctrl1.dram.perBankWrBursts::28            0                       # Per bank write bursts (Count)
board.memory.mem_ctrl1.dram.perBankWrBursts::29            0                       # Per bank write bursts (Count)
board.memory.mem_ctrl1.dram.perBankWrBursts::30            0                       # Per bank write bursts (Count)
board.memory.mem_ctrl1.dram.perBankWrBursts::31            0                       # Per bank write bursts (Count)
board.memory.mem_ctrl1.dram.totQLat          14668410                       # Total ticks spent queuing (Tick)
board.memory.mem_ctrl1.dram.totBusLat         6823936                       # Total ticks spent in databus transfers (Tick)
board.memory.mem_ctrl1.dram.totMemAccLat     50492026                       # Total ticks spent from burst creation until serviced by the DRAM (Tick)
board.memory.mem_ctrl1.dram.avgQLat           7162.31                       # Average queueing delay per DRAM burst ((Tick/Count))
board.memory.mem_ctrl1.dram.avgBusLat         3332.00                       # Average bus latency per DRAM burst ((Tick/Count))
board.memory.mem_ctrl1.dram.avgMemAccLat     24654.31                       # Average memory access latency per DRAM burst ((Tick/Count))
board.memory.mem_ctrl1.dram.readRowHits          1817                       # Number of row buffer hits during reads (Count)
board.memory.mem_ctrl1.dram.writeRowHits            0                       # Number of row buffer hits during writes (Count)
board.memory.mem_ctrl1.dram.readRowHitRate        88.72                       # Row buffer hit rate for reads (Ratio)
board.memory.mem_ctrl1.dram.writeRowHitRate          nan                       # Row buffer hit rate for writes (Ratio)
board.memory.mem_ctrl1.dram.bytesPerActivate::samples          231                       # Bytes accessed per row activation (Byte)
board.memory.mem_ctrl1.dram.bytesPerActivate::mean   567.411255                       # Bytes accessed per row activation (Byte)
board.memory.mem_ctrl1.dram.bytesPerActivate::gmean   375.670324                       # Bytes accessed per row activation (Byte)
board.memory.mem_ctrl1.dram.bytesPerActivate::stdev   401.875862                       # Bytes accessed per row activation (Byte)
board.memory.mem_ctrl1.dram.bytesPerActivate::0-127           38     16.45%     16.45% # Bytes accessed per row activation (Byte)
board.memory.mem_ctrl1.dram.bytesPerActivate::128-255           42     18.18%     34.63% # Bytes accessed per row activation (Byte)
board.memory.mem_ctrl1.dram.bytesPerActivate::256-383           19      8.23%     42.86% # Bytes accessed per row activation (Byte)
board.memory.mem_ctrl1.dram.bytesPerActivate::384-511           14      6.06%     48.92% # Bytes accessed per row activation (Byte)
board.memory.mem_ctrl1.dram.bytesPerActivate::512-639           12      5.19%     54.11% # Bytes accessed per row activation (Byte)
board.memory.mem_ctrl1.dram.bytesPerActivate::640-767            7      3.03%     57.14% # Bytes accessed per row activation (Byte)
board.memory.mem_ctrl1.dram.bytesPerActivate::768-895            7      3.03%     60.17% # Bytes accessed per row activation (Byte)
board.memory.mem_ctrl1.dram.bytesPerActivate::896-1023            8      3.46%     63.64% # Bytes accessed per row activation (Byte)
board.memory.mem_ctrl1.dram.bytesPerActivate::1024-1151           84     36.36%    100.00% # Bytes accessed per row activation (Byte)
board.memory.mem_ctrl1.dram.bytesPerActivate::total          231                       # Bytes accessed per row activation (Byte)
board.memory.mem_ctrl1.dram.dramBytesRead       131072                       # Total bytes read (Byte)
board.memory.mem_ctrl1.dram.dramBytesWritten            0                       # Total bytes written (Byte)
board.memory.mem_ctrl1.dram.avgRdBW        131.072000                       # Average DRAM read bandwidth in MiBytes/s ((Byte/Second))
board.memory.mem_ctrl1.dram.avgWrBW                 0                       # Average DRAM write bandwidth in MiBytes/s ((Byte/Second))
board.memory.mem_ctrl1.dram.peakBW           19207.00                       # Theoretical peak bandwidth in MiByte/s ((Byte/Second))
board.memory.mem_ctrl1.dram.busUtil              0.68                       # Data bus utilization in percentage (Ratio)
board.memory.mem_ctrl1.dram.busUtilRead          0.68                       # Data bus utilization in percentage for reads (Ratio)
board.memory.mem_ctrl1.dram.busUtilWrite         0.00                       # Data bus utilization in percentage for writes (Ratio)
board.memory.mem_ctrl1.dram.pageHitRate         88.72                       # Row buffer hit rate, read and write combined (Ratio)
board.memory.mem_ctrl1.dram.power_state.pwrStateResidencyTicks::UNDEFINED   1000000000                       # Cumulative time (in ticks) in various power states (Tick)
board.memory.mem_ctrl1.dram.rank0.actEnergy 360215.856000                       # Energy for activate commands per rank (pJ) (Joule)
board.memory.mem_ctrl1.dram.rank0.preEnergy 635919.530400                       # Energy for precharge commands per rank (pJ) (Joule)
board.memory.mem_ctrl1.dram.rank0.readEnergy 5617464.115200                       # Energy for read commands per rank (pJ) (Joule)
board.memory.mem_ctrl1.dram.rank0.writeEnergy            0                       # Energy for write commands per rank (pJ) (Joule)
board.memory.mem_ctrl1.dram.rank0.refreshEnergy 86509510.348800                       # Energy for refresh commands per rank (pJ) (Joule)
board.memory.mem_ctrl1.dram.rank0.actBackEnergy 66431366.820000                       # Energy for active background per rank (pJ) (Joule)
board.memory.mem_ctrl1.dram.rank0.preBackEnergy 280538971.507200                       # Energy for precharge background per rank (pJ) (Joule)
board.memory.mem_ctrl1.dram.rank0.actPowerDownEnergy            0                       # Energy for active power-down per rank (pJ) (Joule)
board.memory.mem_ctrl1.dram.rank0.prePowerDownEnergy            0                       # Energy for precharge power-down per rank (pJ) (Joule)
board.memory.mem_ctrl1.dram.rank0.selfRefreshEnergy            0                       # Energy for self refresh per rank (pJ) (Joule)
board.memory.mem_ctrl1.dram.rank0.totalEnergy 440093448.177601                       # Total energy per rank (pJ) (Joule)
board.memory.mem_ctrl1.dram.rank0.averagePower   440.093448                       # Core power per rank (mW) (Watt)
board.memory.mem_ctrl1.dram.rank0.totalIdleTime            0                       # Total Idle time Per DRAM Rank (Tick)
board.memory.mem_ctrl1.dram.rank0.pwrStateTime::IDLE    857556872                       # Time in different power states (Tick)
board.memory.mem_ctrl1.dram.rank0.pwrStateTime::REF     44800000                       # Time in different power states (Tick)
board.memory.mem_ctrl1.dram.rank0.pwrStateTime::SREF            0                       # Time in different power states (Tick)
board.memory.mem_ctrl1.dram.rank0.pwrStateTime::PRE_PDN            0                       # Time in different power states (Tick)
board.memory.mem_ctrl1.dram.rank0.pwrStateTime::ACT     97643128                       # Time in different power states (Tick)
board.memory.mem_ctrl1.dram.rank0.pwrStateTime::ACT_PDN            0                       # Time in different power states (Tick)
board.memory.mem_ctrl1.dram.rank1.actEnergy            0                       # Energy for activate commands per rank (pJ) (Joule)
board.memory.mem_ctrl1.dram.rank1.preEnergy            0                       # Energy for precharge commands per rank (pJ) (Joule)
board.memory.mem_ctrl1.dram.rank1.readEnergy            0                       # Energy for read commands per rank (pJ) (Joule)
board.memory.mem_ctrl1.dram.rank1.writeEnergy            0                       # Energy for write commands per rank (pJ) (Joule)
board.memory.mem_ctrl1.dram.rank1.refreshEnergy 86509510.348800                       # Energy for refresh commands per rank (pJ) (Joule)
board.memory.mem_ctrl1.dram.rank1.actBackEnergy 20366378.188800                       # Energy for active background per rank (pJ) (Joule)
board.memory.mem_ctrl1.dram.rank1.preBackEnergy 312340181.932800                       # Energy for precharge background per rank (pJ) (Joule)
board.memory.mem_ctrl1.dram.rank1.actPowerDownEnergy            0                       # Energy for active power-down per rank (pJ) (Joule)
board.memory.mem_ctrl1.dram.rank1.prePowerDownEnergy            0                       # Energy for precharge power-down per rank (pJ) (Joule)
board.memory.mem_ctrl1.dram.rank1.selfRefreshEnergy            0                       # Energy for self refresh per rank (pJ) (Joule)
board.memory.mem_ctrl1.dram.rank1.totalEnergy 419216070.470401                       # Total energy per rank (pJ) (Joule)
board.memory.mem_ctrl1.dram.rank1.averagePower   419.216070                       # Core power per rank (mW) (Watt)
board.memory.mem_ctrl1.dram.rank1.totalIdleTime            0                       # Total Idle time Per DRAM Rank (Tick)
board.memory.mem_ctrl1.dram.rank1.pwrStateTime::IDLE    955200000                       # Time in different power states (Tick)
board.memory.mem_ctrl1.dram.rank1.pwrStateTime::REF     44800000                       # Time in different power states (Tick)
board.memory.mem_ctrl1.dram.rank1.pwrStateTime::SREF            0                       # Time in different power states (Tick)
board.memory.mem_ctrl1.dram.rank1.pwrStateTime::PRE_PDN            0                       # Time in different power states (Tick)
board.memory.mem_ctrl1.dram.rank1.pwrStateTime::ACT            0                       # Time in different power states (Tick)
board.memory.mem_ctrl1.dram.rank1.pwrStateTime::ACT_PDN            0                       # Time in different power states (Tick)
board.memory.mem_ctrl1.power_state.pwrStateResidencyTicks::UNDEFINED   1000000000                       # Cumulative time (in ticks) in various power states (Tick)
board.processor.cores.generator.numSuppressed            0                       # Number of suppressed packets to non-memory space (Count)
board.processor.cores.generator.numPackets       268259                       # Number of packets generated (Count)
board.processor.cores.generator.numRetries           24                       # Number of retries (Count)
board.processor.cores.generator.retryTicks       785332                       # Time spent waiting due to back-pressure (Tick)
board.processor.cores.generator.bytesRead     17168512                       # Number of bytes read (Byte)
board.processor.cores.generator.bytesWritten            0                       # Number of bytes written (Byte)
board.processor.cores.generator.totalReadLatency   1428035532                       # Total latency of read requests (Tick)
board.processor.cores.generator.totalWriteLatency            0                       # Total latency of write requests (Tick)
board.processor.cores.generator.totalReads       268258                       # Total num of reads (Count)
board.processor.cores.generator.totalWrites            0                       # Total num of writes (Count)
board.processor.cores.generator.avgReadLatency  5323.366058                       # Avg latency of read requests ((Tick/Count))
board.processor.cores.generator.avgWriteLatency          nan                       # Avg latency of write requests ((Tick/Count))
board.processor.cores.generator.readBW    17168512000                       # Read bandwidth ((Byte/Second))
board.processor.cores.generator.writeBW             0                       # Write bandwidth ((Byte/Second))
board.processor.cores.generator.power_state.pwrStateResidencyTicks::UNDEFINED   1000000000                       # Cumulative time (in ticks) in various power states (Tick)
board.workload.inst.arm                             0                       # number of arm instructions executed (Count)
board.workload.inst.quiesce                         0                       # number of quiesce instructions executed (Count)

---------- End Simulation Statistics   ----------
